  Page 1                                    Wed Jan 21 22:57:15 2026

  ******************************************************************
  *                           E P A N E T                          *
  *                   Hydraulic and Water Quality                  *
  *                   Analysis for Pipe Networks                   *
  *                         Version 2.2                            *
  ******************************************************************
  
  Analysis begun Wed Jan 21 22:57:15 2026

  WARNING: Negative pressures at 0:00:00 hrs.
   
  Analysis ended Wed Jan 21 22:57:15 2026
