  Page 1                                    Thu Jan 22 18:36:28 2026

  ******************************************************************
  *                           E P A N E T                          *
  *                   Hydraulic and Water Quality                  *
  *                   Analysis for Pipe Networks                   *
  *                         Version 2.2                            *
  ******************************************************************
  
  Analysis begun Thu Jan 22 18:36:28 2026

  Analysis ended Thu Jan 22 18:36:28 2026
