  Page 1                                    Wed Jan 28 18:14:46 2026

  ******************************************************************
  *                           E P A N E T                          *
  *                   Hydraulic and Water Quality                  *
  *                   Analysis for Pipe Networks                   *
  *                         Version 2.2                            *
  ******************************************************************
  
  Analysis begun Wed Jan 28 18:14:46 2026

   
  Hydraulic Status:
  -----------------------------------------------------------------------
     0:00:00: Balancing the network:

              Trial  1: relative flow change = 7.495818
              PRV PRV-2 switched from active to closed
              Trial  2: relative flow change = 1.776064
              PRV PRV-1 switched from active to closed
              PRV PRV-2 switched from closed to active
              Trial  3: relative flow change = 1.230725
              PRV PRV-1 switched from closed to active
              Trial  4: relative flow change = 1.119871
              Trial  5: relative flow change = 0.950278
              Trial  6: relative flow change = 0.630679
              Trial  7: relative flow change = 0.234400
              Trial  8: relative flow change = 0.061027
              Trial  9: relative flow change = 0.014430
              Trial 10: relative flow change = 0.003531
                        maximum  flow change = 0.6205 for Link p652
                        maximum  head error  = 0.0000 for Link p653

     0:00:00: Balanced after 10 trials
     0:00:00: Reservoir R1 is emptying
     0:00:00: Reservoir R2 is emptying
     0:00:00: Tank T1 is filling at 3.50 m
   
     0:05:00: Balancing the network:

              Trial  1: relative flow change = 0.013273
              Trial  2: relative flow change = 0.002032
                        maximum  flow change = 1.5032 for Link PRV-1
                        maximum  head error  = 0.0000 for Link p235

     0:05:00: Balanced after 2 trials
   
     0:10:00: Balancing the network:

              Trial  1: relative flow change = 0.013297
              Trial  2: relative flow change = 0.002092
                        maximum  flow change = 1.5162 for Link PRV-1
                        maximum  head error  = 0.0000 for Link p235

     0:10:00: Balanced after 2 trials
   
     0:15:00: Balancing the network:

              Trial  1: relative flow change = 0.013320
              Trial  2: relative flow change = 0.002128
                        maximum  flow change = 1.4960 for Link p227
                        maximum  head error  = 0.0000 for Link p235

     0:15:00: Balanced after 2 trials
   
     0:20:00: Balancing the network:

              Trial  1: relative flow change = 0.013184
              Trial  2: relative flow change = 0.002143
                        maximum  flow change = 1.4586 for Link PRV-1
                        maximum  head error  = 0.0000 for Link p235

     0:20:00: Balanced after 2 trials
   
     0:25:00: Balancing the network:

              Trial  1: relative flow change = 0.013068
              Trial  2: relative flow change = 0.002167
                        maximum  flow change = 1.4242 for Link PRV-1
                        maximum  head error  = 0.0000 for Link p235

     0:25:00: Balanced after 2 trials
   
     0:30:00: Balancing the network:

              Trial  1: relative flow change = 0.013076
              Trial  2: relative flow change = 0.002206
                        maximum  flow change = 1.4039 for Link p227
                        maximum  head error  = 0.0000 for Link p235

     0:30:00: Balanced after 2 trials
   
     0:35:00: Balancing the network:

              Trial  1: relative flow change = 0.013144
              Trial  2: relative flow change = 0.002240
                        maximum  flow change = 1.3905 for Link PRV-1
                        maximum  head error  = 0.0000 for Link p235

     0:35:00: Balanced after 2 trials
   
     0:40:00: Balancing the network:

              Trial  1: relative flow change = 0.013403
              Trial  2: relative flow change = 0.002309
                        maximum  flow change = 1.3966 for Link PRV-1
                        maximum  head error  = 0.0000 for Link p235

     0:40:00: Balanced after 2 trials
   
     0:45:00: Balancing the network:

              Trial  1: relative flow change = 0.013578
              Trial  2: relative flow change = 0.002334
                        maximum  flow change = 1.3941 for Link p227
                        maximum  head error  = 0.0000 for Link p235

     0:45:00: Balanced after 2 trials
   
     0:50:00: Balancing the network:

              Trial  1: relative flow change = 0.013695
              Trial  2: relative flow change = 0.002360
                        maximum  flow change = 1.3850 for Link p227
                        maximum  head error  = 0.0000 for Link p235

     0:50:00: Balanced after 2 trials
   
     0:55:00: Balancing the network:

              Trial  1: relative flow change = 0.013592
              Trial  2: relative flow change = 0.002318
                        maximum  flow change = 1.3548 for Link PRV-1
                        maximum  head error  = 0.0000 for Link p235

     0:55:00: Balanced after 2 trials
   
     1:00:00: Balancing the network:

              Trial  1: relative flow change = 0.013413
              Trial  2: relative flow change = 0.002276
                        maximum  flow change = 1.3180 for Link p227
                        maximum  head error  = 0.0000 for Link p235

     1:00:00: Balanced after 2 trials
   
     1:05:00: Balancing the network:

              Trial  1: relative flow change = 0.013012
              Trial  2: relative flow change = 0.002180
                        maximum  flow change = 1.2611 for Link p227
                        maximum  head error  = 0.0000 for Link p235

     1:05:00: Balanced after 2 trials
   
     1:10:00: Balancing the network:

              Trial  1: relative flow change = 0.012625
              Trial  2: relative flow change = 0.002108
                        maximum  flow change = 1.2073 for Link p227
                        maximum  head error  = 0.0000 for Link p235

     1:10:00: Balanced after 2 trials
   
     1:15:00: Balancing the network:

              Trial  1: relative flow change = 0.012353
              Trial  2: relative flow change = 0.002053
                        maximum  flow change = 1.1657 for Link p227
                        maximum  head error  = 0.0000 for Link p235

     1:15:00: Balanced after 2 trials
   
     1:20:00: Balancing the network:

              Trial  1: relative flow change = 0.012229
              Trial  2: relative flow change = 0.002029
                        maximum  flow change = 1.1389 for Link p227
                        maximum  head error  = 0.0000 for Link p235

     1:20:00: Balanced after 2 trials
   
     1:25:00: Balancing the network:

              Trial  1: relative flow change = 0.012220
              Trial  2: relative flow change = 0.002049
                        maximum  flow change = 1.1227 for Link p227
                        maximum  head error  = 0.0000 for Link p235

     1:25:00: Balanced after 2 trials
   
     1:30:00: Balancing the network:

              Trial  1: relative flow change = 0.012378
              Trial  2: relative flow change = 0.002102
                        maximum  flow change = 1.1214 for Link p227
                        maximum  head error  = 0.0000 for Link p235

     1:30:00: Balanced after 2 trials
   
     1:35:00: Balancing the network:

              Trial  1: relative flow change = 0.012508
              Trial  2: relative flow change = 0.002144
                        maximum  flow change = 1.1173 for Link p227
                        maximum  head error  = 0.0000 for Link p235

     1:35:00: Balanced after 2 trials
   
     1:40:00: Balancing the network:

              Trial  1: relative flow change = 0.012482
              Trial  2: relative flow change = 0.002175
                        maximum  flow change = 1.0991 for Link p227
                        maximum  head error  = 0.0000 for Link p235

     1:40:00: Balanced after 2 trials
   
     1:45:00: Balancing the network:

              Trial  1: relative flow change = 0.012248
              Trial  2: relative flow change = 0.002157
                        maximum  flow change = 1.0633 for Link p227
                        maximum  head error  = 0.0000 for Link p235

     1:45:00: Balanced after 2 trials
   
     1:50:00: Balancing the network:

              Trial  1: relative flow change = 0.011727
              Trial  2: relative flow change = 0.002067
                        maximum  flow change = 1.0047 for Link p227
                        maximum  head error  = 0.0000 for Link p235

     1:50:00: Balanced after 2 trials
   
     1:55:00: Balancing the network:

              Trial  1: relative flow change = 0.011005
              Trial  2: relative flow change = 0.001937
                        maximum  flow change = 0.9313 for Link p227
                        maximum  head error  = 0.0000 for Link p235

     1:55:00: Balanced after 2 trials
   
     2:00:00: Balancing the network:

              Trial  1: relative flow change = 0.009950
                        maximum  flow change = 0.8101 for Link p110
                        maximum  head error  = 0.0000 for Link PUMP_1

     2:00:00: Balanced after 1 trials
   
     2:05:00: Balancing the network:

              Trial  1: relative flow change = 0.010405
              Trial  2: relative flow change = 0.001589
                        maximum  flow change = 0.7895 for Link PRV-1
                        maximum  head error  = 0.0000 for Link p235

     2:05:00: Balanced after 2 trials
   
     2:10:00: Balancing the network:

              Trial  1: relative flow change = 0.008148
                        maximum  flow change = 0.6486 for Link p110
                        maximum  head error  = 0.0000 for Link PUMP_1

     2:10:00: Balanced after 1 trials
   
     2:15:00: Balancing the network:

              Trial  1: relative flow change = 0.008571
                        maximum  flow change = 0.6698 for Link p227
                        maximum  head error  = 0.0000 for Link PUMP_1

     2:15:00: Balanced after 1 trials
   
     2:20:00: Balancing the network:

              Trial  1: relative flow change = 0.008131
                        maximum  flow change = 0.6407 for Link PRV-1
                        maximum  head error  = 0.0000 for Link PUMP_1

     2:20:00: Balanced after 1 trials
   
     2:25:00: Balancing the network:

              Trial  1: relative flow change = 0.007954
                        maximum  flow change = 0.6031 for Link p227
                        maximum  head error  = 0.0000 for Link PUMP_1

     2:25:00: Balanced after 1 trials
   
     2:28:53: Pump PUMP_1 changed by Tank T1 control
     2:28:53: Balancing the network:

              Trial  1: relative flow change = 1.188875
              Trial  2: relative flow change = 0.085845
              Trial  3: relative flow change = 0.002771
                        maximum  flow change = 0.1790 for Link PRV-2
                        maximum  head error  = 0.0000 for Link p37

     2:28:53: Balanced after 3 trials
     2:28:53: Tank T1 is emptying at 3.90 m
     2:28:53: Pump PUMP_1 changed from open to closed
   
     2:30:00: Balancing the network:

              Trial  1: relative flow change = 0.015724
              Trial  2: relative flow change = 0.002784
                        maximum  flow change = 0.5496 for Link PRV-1
                        maximum  head error  = 0.0000 for Link p235

     2:30:00: Balanced after 2 trials
   
     2:35:00: Balancing the network:

              Trial  1: relative flow change = 0.016358
              Trial  2: relative flow change = 0.002960
                        maximum  flow change = 0.5607 for Link p227
                        maximum  head error  = 0.0000 for Link p235

     2:35:00: Balanced after 2 trials
   
     2:40:00: Balancing the network:

              Trial  1: relative flow change = 0.016722
              Trial  2: relative flow change = 0.003119
                        maximum  flow change = 0.5621 for Link p227
                        maximum  head error  = 0.0000 for Link p235

     2:40:00: Balanced after 2 trials
   
     2:45:00: Balancing the network:

              Trial  1: relative flow change = 0.017073
              Trial  2: relative flow change = 0.003240
                        maximum  flow change = 0.5624 for Link PRV-1
                        maximum  head error  = 0.0000 for Link p235

     2:45:00: Balanced after 2 trials
   
     2:50:00: Balancing the network:

              Trial  1: relative flow change = 0.016986
              Trial  2: relative flow change = 0.003266
                        maximum  flow change = 0.5485 for Link p227
                        maximum  head error  = 0.0000 for Link p235

     2:50:00: Balanced after 2 trials
   
     2:55:00: Balancing the network:

              Trial  1: relative flow change = 0.016067
              Trial  2: relative flow change = 0.003099
                        maximum  flow change = 0.5093 for Link p227
                        maximum  head error  = 0.0000 for Link p235

     2:55:00: Balanced after 2 trials
   
     3:00:00: Balancing the network:

              Trial  1: relative flow change = 0.014932
              Trial  2: relative flow change = 0.002867
                        maximum  flow change = 0.4650 for Link p227
                        maximum  head error  = 0.0000 for Link p235

     3:00:00: Balanced after 2 trials
   
     3:05:00: Balancing the network:

              Trial  1: relative flow change = 0.013407
              Trial  2: relative flow change = 0.002590
                        maximum  flow change = 0.4111 for Link p227
                        maximum  head error  = 0.0000 for Link p235

     3:05:00: Balanced after 2 trials
   
     3:10:00: Balancing the network:

              Trial  1: relative flow change = 0.011629
              Trial  2: relative flow change = 0.002232
                        maximum  flow change = 0.3517 for Link PRV-1
                        maximum  head error  = 0.0000 for Link p235

     3:10:00: Balanced after 2 trials
   
     3:15:00: Balancing the network:

              Trial  1: relative flow change = 0.009903
                        maximum  flow change = 0.2927 for Link p110
                        maximum  head error  = 0.0000 for Link p110

     3:15:00: Balanced after 1 trials
   
     3:20:00: Balancing the network:

              Trial  1: relative flow change = 0.009790
                        maximum  flow change = 0.2960 for Link p235
                        maximum  head error  = 0.0000 for Link p110

     3:20:00: Balanced after 1 trials
   
     3:25:00: Balancing the network:

              Trial  1: relative flow change = 0.008762
                        maximum  flow change = 0.2615 for Link p227
                        maximum  head error  = 0.0000 for Link p110

     3:25:00: Balanced after 1 trials
   
     3:30:00: Balancing the network:

              Trial  1: relative flow change = 0.008181
                        maximum  flow change = 0.2322 for Link p227
                        maximum  head error  = 0.0000 for Link p110

     3:30:00: Balanced after 1 trials
   
     3:35:00: Balancing the network:

              Trial  1: relative flow change = 0.008133
                        maximum  flow change = 0.2161 for Link PRV-1
                        maximum  head error  = 0.0000 for Link p110

     3:35:00: Balanced after 1 trials
   
     3:40:00: Balancing the network:

              Trial  1: relative flow change = 0.008816
                        maximum  flow change = 0.2280 for Link p110
                        maximum  head error  = 0.0000 for Link p110

     3:40:00: Balanced after 1 trials
   
     3:45:00: Balancing the network:

              Trial  1: relative flow change = 0.009415
                        maximum  flow change = 0.2395 for Link p110
                        maximum  head error  = 0.0000 for Link p110

     3:45:00: Balanced after 1 trials
   
     3:50:00: Balancing the network:

              Trial  1: relative flow change = 0.009971
                        maximum  flow change = 0.2503 for Link p110
                        maximum  head error  = 0.0000 for Link p110

     3:50:00: Balanced after 1 trials
   
     3:55:00: Balancing the network:

              Trial  1: relative flow change = 0.009964
                        maximum  flow change = 0.2588 for Link p227
                        maximum  head error  = 0.0000 for Link p110

     3:55:00: Balanced after 1 trials
   
     4:00:00: Balancing the network:

              Trial  1: relative flow change = 0.009447
                        maximum  flow change = 0.2548 for Link PRV-1
                        maximum  head error  = 0.0000 for Link p110

     4:00:00: Balanced after 1 trials
   
     4:05:00: Balancing the network:

              Trial  1: relative flow change = 0.007934
                        maximum  flow change = 0.2387 for Link p227
                        maximum  head error  = 0.0000 for Link p110

     4:05:00: Balanced after 1 trials
   
     4:10:00: Balancing the network:

              Trial  1: relative flow change = 0.005902
                        maximum  flow change = 0.1967 for Link PRV-1
                        maximum  head error  = 0.0000 for Link p110

     4:10:00: Balanced after 1 trials
   
     4:15:00: Balancing the network:

              Trial  1: relative flow change = 0.003669
                        maximum  flow change = 0.1434 for Link p227
                        maximum  head error  = 0.0000 for Link p235

     4:15:00: Balanced after 1 trials
   
     4:20:00: Balancing the network:

              Trial  1: relative flow change = 0.001579
                        maximum  flow change = 0.0858 for Link PRV-1
                        maximum  head error  = 0.0000 for Link p235

     4:20:00: Balanced after 1 trials
   
     4:25:00: Balancing the network:

              Trial  1: relative flow change = 0.001029
                        maximum  flow change = 0.0344 for Link PRV-2
                        maximum  head error  = 0.0000 for Link p235

     4:25:00: Balanced after 1 trials
   
     4:30:00: Balancing the network:

              Trial  1: relative flow change = 0.002017
                        maximum  flow change = 0.0422 for Link p110
                        maximum  head error  = 0.0000 for Link p110

     4:30:00: Balanced after 1 trials
   
     4:35:00: Balancing the network:

              Trial  1: relative flow change = 0.003323
                        maximum  flow change = 0.0765 for Link p110
                        maximum  head error  = 0.0000 for Link p110

     4:35:00: Balanced after 1 trials
   
     4:40:00: Balancing the network:

              Trial  1: relative flow change = 0.004433
                        maximum  flow change = 0.1064 for Link p110
                        maximum  head error  = 0.0000 for Link p110

     4:40:00: Balanced after 1 trials
   
     4:45:00: Balancing the network:

              Trial  1: relative flow change = 0.005903
                        maximum  flow change = 0.1462 for Link p110
                        maximum  head error  = 0.0000 for Link p110

     4:45:00: Balanced after 1 trials
   
     4:50:00: Balancing the network:

              Trial  1: relative flow change = 0.008180
                        maximum  flow change = 0.2066 for Link p110
                        maximum  head error  = 0.0000 for Link p110

     4:50:00: Balanced after 1 trials
   
     4:55:00: Balancing the network:

              Trial  1: relative flow change = 0.011232
              Trial  2: relative flow change = 0.001670
                        maximum  flow change = 0.2976 for Link PRV-1
                        maximum  head error  = 0.0000 for Link p235

     4:55:00: Balanced after 2 trials
   
     5:00:00: Balancing the network:

              Trial  1: relative flow change = 0.013560
              Trial  2: relative flow change = 0.002169
                        maximum  flow change = 0.3880 for Link p227
                        maximum  head error  = 0.0000 for Link p235

     5:00:00: Balanced after 2 trials
   
     5:05:00: Balancing the network:

              Trial  1: relative flow change = 0.017441
              Trial  2: relative flow change = 0.002725
                        maximum  flow change = 0.5087 for Link p227
                        maximum  head error  = 0.0000 for Link p235

     5:05:00: Balanced after 2 trials
   
     5:10:00: Balancing the network:

              Trial  1: relative flow change = 0.021338
              Trial  2: relative flow change = 0.003154
                        maximum  flow change = 0.6377 for Link p227
                        maximum  head error  = 0.0000 for Link p235

     5:10:00: Balanced after 2 trials
   
     5:15:00: Balancing the network:

              Trial  1: relative flow change = 0.025357
              Trial  2: relative flow change = 0.003540
                        maximum  flow change = 0.7799 for Link p227
                        maximum  head error  = 0.0000 for Link p235

     5:15:00: Balanced after 2 trials
   
     5:20:00: Balancing the network:

              Trial  1: relative flow change = 0.029480
              Trial  2: relative flow change = 0.003855
                        maximum  flow change = 0.9375 for Link PRV-1
                        maximum  head error  = 0.0000 for Link p235

     5:20:00: Balanced after 2 trials
   
     5:25:00: Balancing the network:

              Trial  1: relative flow change = 0.033760
              Trial  2: relative flow change = 0.004101
                        maximum  flow change = 1.1154 for Link p227
                        maximum  head error  = 0.0000 for Link p235

     5:25:00: Balanced after 2 trials
   
     5:30:00: Balancing the network:

              Trial  1: relative flow change = 0.038734
              Trial  2: relative flow change = 0.004467
                        maximum  flow change = 1.3365 for Link p227
                        maximum  head error  = 0.0000 for Link p235

     5:30:00: Balanced after 2 trials
   
     5:35:00: Balancing the network:

              Trial  1: relative flow change = 0.044558
              Trial  2: relative flow change = 0.004887
                        maximum  flow change = 1.6162 for Link p227
                        maximum  head error  = 0.0000 for Link p235

     5:35:00: Balanced after 2 trials
   
     5:40:00: Balancing the network:

              Trial  1: relative flow change = 0.050948
              Trial  2: relative flow change = 0.005474
                        maximum  flow change = 1.9562 for Link p227
                        maximum  head error  = 0.0000 for Link p235

     5:40:00: Balanced after 2 trials
   
     5:45:00: Balancing the network:

              Trial  1: relative flow change = 0.057435
              Trial  2: relative flow change = 0.006120
                        maximum  flow change = 2.3514 for Link p227
                        maximum  head error  = 0.0000 for Link p235

     5:45:00: Balanced after 2 trials
   
     5:50:00: Balancing the network:

              Trial  1: relative flow change = 0.063244
              Trial  2: relative flow change = 0.006772
                        maximum  flow change = 2.7789 for Link p227
                        maximum  head error  = 0.0000 for Link p235

     5:50:00: Balanced after 2 trials
   
     5:55:00: Balancing the network:

              Trial  1: relative flow change = 0.067485
              Trial  2: relative flow change = 0.007331
                        maximum  flow change = 3.1984 for Link PRV-1
                        maximum  head error  = 0.0000 for Link p235

     5:55:00: Balanced after 2 trials
   
     6:00:00: Balancing the network:

              Trial  1: relative flow change = 0.069350
              Trial  2: relative flow change = 0.007689
                        maximum  flow change = 3.5548 for Link PRV-1
                        maximum  head error  = 0.0000 for Link p235

     6:00:00: Balanced after 2 trials
   
     6:05:00: Balancing the network:

              Trial  1: relative flow change = 0.068756
              Trial  2: relative flow change = 0.007796
                        maximum  flow change = 3.8102 for Link PRV-1
                        maximum  head error  = 0.0000 for Link p235

     6:05:00: Balanced after 2 trials
   
     6:10:00: Balancing the network:

              Trial  1: relative flow change = 0.065570
              Trial  2: relative flow change = 0.007647
                        maximum  flow change = 3.9150 for Link PRV-1
                        maximum  head error  = 0.0000 for Link p235

     6:10:00: Balanced after 2 trials
   
     6:15:00: Balancing the network:

              Trial  1: relative flow change = 0.060448
              Trial  2: relative flow change = 0.007284
                        maximum  flow change = 3.8661 for Link PRV-1
                        maximum  head error  = 0.0000 for Link p235

     6:15:00: Balanced after 2 trials
   
     6:20:00: Balancing the network:

              Trial  1: relative flow change = 0.053995
              Trial  2: relative flow change = 0.006735
                        maximum  flow change = 3.6722 for Link PRV-1
                        maximum  head error  = 0.0000 for Link p235

     6:20:00: Balanced after 2 trials
   
     6:25:00: Balancing the network:

              Trial  1: relative flow change = 0.046998
              Trial  2: relative flow change = 0.006127
                        maximum  flow change = 3.3715 for Link PRV-1
                        maximum  head error  = 0.0000 for Link p235

     6:25:00: Balanced after 2 trials
   
     6:30:00: Balancing the network:

              Trial  1: relative flow change = 0.040310
              Trial  2: relative flow change = 0.005489
                        maximum  flow change = 3.0266 for Link PRV-1
                        maximum  head error  = 0.0000 for Link p235

     6:30:00: Balanced after 2 trials
   
     6:35:00: Balancing the network:

              Trial  1: relative flow change = 0.034576
              Trial  2: relative flow change = 0.004957
                        maximum  flow change = 2.6987 for Link PRV-1
                        maximum  head error  = 0.0000 for Link p235

     6:35:00: Balanced after 2 trials
   
     6:40:00: Balancing the network:

              Trial  1: relative flow change = 0.030255
              Trial  2: relative flow change = 0.004531
                        maximum  flow change = 2.4428 for Link PRV-1
                        maximum  head error  = 0.0000 for Link p235

     6:40:00: Balanced after 2 trials
   
     6:45:00: Balancing the network:

              Trial  1: relative flow change = 0.027509
              Trial  2: relative flow change = 0.004253
                        maximum  flow change = 2.2905 for Link p227
                        maximum  head error  = 0.0000 for Link p235

     6:45:00: Balanced after 2 trials
   
     6:50:00: Balancing the network:

              Trial  1: relative flow change = 0.026257
              Trial  2: relative flow change = 0.004136
                        maximum  flow change = 2.2522 for Link PRV-1
                        maximum  head error  = 0.0000 for Link p235

     6:50:00: Balanced after 2 trials
   
     6:55:00: Balancing the network:

              Trial  1: relative flow change = 0.026076
              Trial  2: relative flow change = 0.004130
                        maximum  flow change = 2.3040 for Link p227
                        maximum  head error  = 0.0000 for Link p235

     6:55:00: Balanced after 2 trials
   
     7:00:00: Balancing the network:

              Trial  1: relative flow change = 0.026174
              Trial  2: relative flow change = 0.004136
                        maximum  flow change = 2.3833 for Link PRV-1
                        maximum  head error  = 0.0000 for Link p235

     7:00:00: Balanced after 2 trials
   
     7:05:00: Balancing the network:

              Trial  1: relative flow change = 0.026284
              Trial  2: relative flow change = 0.004160
                        maximum  flow change = 2.4662 for Link p227
                        maximum  head error  = 0.0000 for Link p235

     7:05:00: Balanced after 2 trials
   
     7:10:00: Balancing the network:

              Trial  1: relative flow change = 0.025620
              Trial  2: relative flow change = 0.004095
                        maximum  flow change = 2.4748 for Link PRV-1
                        maximum  head error  = 0.0000 for Link p235

     7:10:00: Balanced after 2 trials
   
     7:15:00: Balancing the network:

              Trial  1: relative flow change = 0.024065
              Trial  2: relative flow change = 0.003930
                        maximum  flow change = 2.3885 for Link PRV-1
                        maximum  head error  = 0.0000 for Link p235

     7:15:00: Balanced after 2 trials
   
     7:20:00: Balancing the network:

              Trial  1: relative flow change = 0.021626
              Trial  2: relative flow change = 0.003669
                        maximum  flow change = 2.1979 for Link PRV-1
                        maximum  head error  = 0.0000 for Link p235

     7:20:00: Balanced after 2 trials
   
     7:25:00: Balancing the network:

              Trial  1: relative flow change = 0.018469
              Trial  2: relative flow change = 0.003311
                        maximum  flow change = 1.9140 for Link PRV-1
                        maximum  head error  = 0.0000 for Link p235

     7:25:00: Balanced after 2 trials
   
     7:30:00: Balancing the network:

              Trial  1: relative flow change = 0.014980
              Trial  2: relative flow change = 0.002909
                        maximum  flow change = 1.5746 for Link p227
                        maximum  head error  = 0.0000 for Link p235

     7:30:00: Balanced after 2 trials
   
     7:35:00: Balancing the network:

              Trial  1: relative flow change = 0.011630
              Trial  2: relative flow change = 0.002518
                        maximum  flow change = 1.2375 for Link p235
                        maximum  head error  = 0.0000 for Link p235

     7:35:00: Balanced after 2 trials
   
     7:40:00: Balancing the network:

              Trial  1: relative flow change = 0.008629
                        maximum  flow change = 0.9367 for Link p110
                        maximum  head error  = 0.0000 for Link p110

     7:40:00: Balanced after 1 trials
   
     7:45:00: Balancing the network:

              Trial  1: relative flow change = 0.007829
                        maximum  flow change = 0.9450 for Link p235
                        maximum  head error  = 0.0000 for Link p110

     7:45:00: Balanced after 1 trials
   
     7:50:00: Balancing the network:

              Trial  1: relative flow change = 0.006082
                        maximum  flow change = 0.7669 for Link p235
                        maximum  head error  = 0.0000 for Link p110

     7:50:00: Balanced after 1 trials
   
     7:55:00: Balancing the network:

              Trial  1: relative flow change = 0.004987
                        maximum  flow change = 0.5976 for Link p235
                        maximum  head error  = 0.0000 for Link p110

     7:55:00: Balanced after 1 trials
   
     8:00:00: Balancing the network:

              Trial  1: relative flow change = 0.004560
                        maximum  flow change = 0.4946 for Link p235
                        maximum  head error  = 0.0000 for Link p110

     8:00:00: Balanced after 1 trials
   
     8:05:00: Balancing the network:

              Trial  1: relative flow change = 0.004450
                        maximum  flow change = 0.4589 for Link p235
                        maximum  head error  = 0.0000 for Link p110

     8:05:00: Balanced after 1 trials
   
     8:10:00: Balancing the network:

              Trial  1: relative flow change = 0.004587
                        maximum  flow change = 0.4678 for Link p110
                        maximum  head error  = 0.0000 for Link p110

     8:10:00: Balanced after 1 trials
   
     8:15:00: Balancing the network:

              Trial  1: relative flow change = 0.004768
                        maximum  flow change = 0.4893 for Link p110
                        maximum  head error  = 0.0000 for Link p110

     8:15:00: Balanced after 1 trials
   
     8:20:00: Balancing the network:

              Trial  1: relative flow change = 0.004841
                        maximum  flow change = 0.4983 for Link p110
                        maximum  head error  = 0.0000 for Link p110

     8:20:00: Balanced after 1 trials
   
     8:25:00: Balancing the network:

              Trial  1: relative flow change = 0.004763
                        maximum  flow change = 0.5031 for Link p235
                        maximum  head error  = 0.0000 for Link p110

     8:25:00: Balanced after 1 trials
   
     8:30:00: Balancing the network:

              Trial  1: relative flow change = 0.004619
                        maximum  flow change = 0.4954 for Link p235
                        maximum  head error  = 0.0000 for Link p110

     8:30:00: Balanced after 1 trials
   
     8:35:00: Balancing the network:

              Trial  1: relative flow change = 0.004360
                        maximum  flow change = 0.4820 for Link p235
                        maximum  head error  = 0.0000 for Link p110

     8:35:00: Balanced after 1 trials
   
     8:40:00: Balancing the network:

              Trial  1: relative flow change = 0.004003
                        maximum  flow change = 0.4550 for Link p235
                        maximum  head error  = 0.0000 for Link p110

     8:40:00: Balanced after 1 trials
   
     8:45:00: Balancing the network:

              Trial  1: relative flow change = 0.003658
                        maximum  flow change = 0.4179 for Link p235
                        maximum  head error  = 0.0000 for Link p110

     8:45:00: Balanced after 1 trials
   
     8:50:00: Balancing the network:

              Trial  1: relative flow change = 0.003273
                        maximum  flow change = 0.3827 for Link p235
                        maximum  head error  = 0.0000 for Link p110

     8:50:00: Balanced after 1 trials
   
     8:55:00: Balancing the network:

              Trial  1: relative flow change = 0.002800
                        maximum  flow change = 0.3424 for Link p235
                        maximum  head error  = 0.0000 for Link p110

     8:55:00: Balanced after 1 trials
   
     9:00:00: Balancing the network:

              Trial  1: relative flow change = 0.002457
                        maximum  flow change = 0.2919 for Link p235
                        maximum  head error  = 0.0000 for Link p110

     9:00:00: Balanced after 1 trials
   
     9:05:00: Balancing the network:

              Trial  1: relative flow change = 0.002098
                        maximum  flow change = 0.2578 for Link p235
                        maximum  head error  = 0.0000 for Link p110

     9:05:00: Balanced after 1 trials
   
     9:10:00: Balancing the network:

              Trial  1: relative flow change = 0.001850
                        maximum  flow change = 0.2198 for Link p235
                        maximum  head error  = 0.0000 for Link p110

     9:10:00: Balanced after 1 trials
   
     9:15:00: Balancing the network:

              Trial  1: relative flow change = 0.001787
                        maximum  flow change = 0.1956 for Link p235
                        maximum  head error  = 0.0000 for Link p110

     9:15:00: Balanced after 1 trials
   
     9:20:00: Balancing the network:

              Trial  1: relative flow change = 0.001749
                        maximum  flow change = 0.1910 for Link p235
                        maximum  head error  = 0.0000 for Link p110

     9:20:00: Balanced after 1 trials
   
     9:25:00: Balancing the network:

              Trial  1: relative flow change = 0.001854
                        maximum  flow change = 0.1982 for Link p110
                        maximum  head error  = 0.0000 for Link p110

     9:25:00: Balanced after 1 trials
   
     9:30:00: Balancing the network:

              Trial  1: relative flow change = 0.001878
                        maximum  flow change = 0.2005 for Link p235
                        maximum  head error  = 0.0000 for Link p110

     9:30:00: Balanced after 1 trials
   
     9:35:00: Balancing the network:

              Trial  1: relative flow change = 0.001858
                        maximum  flow change = 0.2025 for Link p235
                        maximum  head error  = 0.0000 for Link p110

     9:35:00: Balanced after 1 trials
   
     9:40:00: Balancing the network:

              Trial  1: relative flow change = 0.001658
                        maximum  flow change = 0.1999 for Link p235
                        maximum  head error  = 0.0000 for Link p110

     9:40:00: Balanced after 1 trials
   
     9:45:00: Balancing the network:

              Trial  1: relative flow change = 0.001246
                        maximum  flow change = 0.1765 for Link p235
                        maximum  head error  = 0.0000 for Link p110

     9:45:00: Balanced after 1 trials
   
     9:50:00: Balancing the network:

              Trial  1: relative flow change = 0.000713
                        maximum  flow change = 0.1303 for Link p235
                        maximum  head error  = 0.0000 for Link p235

     9:50:00: Balanced after 1 trials
   
     9:55:00: Balancing the network:

              Trial  1: relative flow change = 0.000399
                        maximum  flow change = 0.0684 for Link PRV-2
                        maximum  head error  = 0.0000 for Link p235

     9:55:00: Balanced after 1 trials
   
    10:00:00: Balancing the network:

              Trial  1: relative flow change = 0.000831
                        maximum  flow change = 0.0741 for Link p110
                        maximum  head error  = 0.0000 for Link p110

    10:00:00: Balanced after 1 trials
   
    10:05:00: Balancing the network:

              Trial  1: relative flow change = 0.001347
                        maximum  flow change = 0.1276 for Link p110
                        maximum  head error  = 0.0000 for Link p110

    10:05:00: Balanced after 1 trials
   
    10:10:00: Balancing the network:

              Trial  1: relative flow change = 0.001584
                        maximum  flow change = 0.1482 for Link p110
                        maximum  head error  = 0.0000 for Link p110

    10:10:00: Balanced after 1 trials
   
    10:15:00: Balancing the network:

              Trial  1: relative flow change = 0.001556
                        maximum  flow change = 0.1708 for Link p227
                        maximum  head error  = 0.0000 for Link p110

    10:15:00: Balanced after 1 trials
   
    10:20:00: Balancing the network:

              Trial  1: relative flow change = 0.001250
                        maximum  flow change = 0.1641 for Link PRV-1
                        maximum  head error  = 0.0000 for Link p110

    10:20:00: Balanced after 1 trials
   
    10:25:00: Balancing the network:

              Trial  1: relative flow change = 0.000813
                        maximum  flow change = 0.1260 for Link PRV-1
                        maximum  head error  = 0.0000 for Link p227

    10:25:00: Balanced after 1 trials
   
    10:30:00: Balancing the network:

              Trial  1: relative flow change = 0.000462
                        maximum  flow change = 0.0714 for Link p227
                        maximum  head error  = 0.0000 for Link p227

    10:30:00: Balanced after 1 trials
   
    10:35:00: Balancing the network:

              Trial  1: relative flow change = 0.000533
                        maximum  flow change = 0.0423 for Link p110
                        maximum  head error  = 0.0000 for Link p110

    10:35:00: Balanced after 1 trials
   
    10:40:00: Balancing the network:

              Trial  1: relative flow change = 0.000684
                        maximum  flow change = 0.0675 for Link p110
                        maximum  head error  = 0.0000 for Link p110

    10:40:00: Balanced after 1 trials
   
    10:45:00: Balancing the network:

              Trial  1: relative flow change = 0.000584
                        maximum  flow change = 0.0678 for Link PRV-2
                        maximum  head error  = 0.0000 for Link p110

    10:45:00: Balanced after 1 trials
   
    10:50:00: Balancing the network:

              Trial  1: relative flow change = 0.000360
                        maximum  flow change = 0.0521 for Link PRV-2
                        maximum  head error  = 0.0000 for Link p235

    10:50:00: Balanced after 1 trials
   
    10:55:00: Balancing the network:

              Trial  1: relative flow change = 0.000347
                        maximum  flow change = 0.0239 for Link p239
                        maximum  head error  = 0.0000 for Link p699

    10:55:00: Balanced after 1 trials
   
    11:00:00: Balancing the network:

              Trial  1: relative flow change = 0.000675
                        maximum  flow change = 0.0610 for Link p110
                        maximum  head error  = 0.0000 for Link p110

    11:00:00: Balanced after 1 trials
   
    11:05:00: Balancing the network:

              Trial  1: relative flow change = 0.000899
                        maximum  flow change = 0.0850 for Link p110
                        maximum  head error  = 0.0000 for Link p110

    11:05:00: Balanced after 1 trials
   
    11:10:00: Balancing the network:

              Trial  1: relative flow change = 0.001022
                        maximum  flow change = 0.0976 for Link p110
                        maximum  head error  = 0.0000 for Link p110

    11:10:00: Balanced after 1 trials
   
    11:15:00: Balancing the network:

              Trial  1: relative flow change = 0.000917
                        maximum  flow change = 0.1105 for Link PRV-1
                        maximum  head error  = 0.0000 for Link p110

    11:15:00: Balanced after 1 trials
   
    11:20:00: Balancing the network:

              Trial  1: relative flow change = 0.000673
                        maximum  flow change = 0.0969 for Link PRV-1
                        maximum  head error  = 0.0000 for Link p235

    11:20:00: Balanced after 1 trials
   
    11:25:00: Balancing the network:

              Trial  1: relative flow change = 0.000453
                        maximum  flow change = 0.0681 for Link PRV-1
                        maximum  head error  = 0.0000 for Link p227

    11:25:00: Balanced after 1 trials
   
    11:30:00: Balancing the network:

              Trial  1: relative flow change = 0.000284
                        maximum  flow change = 0.0432 for Link PRV-1
                        maximum  head error  = 0.0000 for Link p227

    11:30:00: Balanced after 1 trials
   
    11:35:00: Balancing the network:

              Trial  1: relative flow change = 0.000248
                        maximum  flow change = 0.0219 for Link p227
                        maximum  head error  = 0.0000 for Link p227

    11:35:00: Balanced after 1 trials
   
    11:40:00: Balancing the network:

              Trial  1: relative flow change = 0.000325
                        maximum  flow change = 0.0252 for Link p110
                        maximum  head error  = 0.0000 for Link p110

    11:40:00: Balanced after 1 trials
   
    11:45:00: Balancing the network:

              Trial  1: relative flow change = 0.000632
                        maximum  flow change = 0.0615 for Link p110
                        maximum  head error  = 0.0000 for Link p110

    11:45:00: Balanced after 1 trials
   
    11:50:00: Balancing the network:

              Trial  1: relative flow change = 0.001013
                        maximum  flow change = 0.1040 for Link p110
                        maximum  head error  = 0.0000 for Link p110

    11:50:00: Balanced after 1 trials
   
    11:55:00: Balancing the network:

              Trial  1: relative flow change = 0.001411
                        maximum  flow change = 0.1473 for Link p110
                        maximum  head error  = 0.0000 for Link p110

    11:55:00: Balanced after 1 trials
   
    12:00:00: Balancing the network:

              Trial  1: relative flow change = 0.001783
                        maximum  flow change = 0.1859 for Link p110
                        maximum  head error  = 0.0000 for Link p110

    12:00:00: Balanced after 1 trials
   
    12:05:00: Balancing the network:

              Trial  1: relative flow change = 0.002020
                        maximum  flow change = 0.2100 for Link p110
                        maximum  head error  = 0.0000 for Link p110

    12:05:00: Balanced after 1 trials
   
    12:10:00: Balancing the network:

              Trial  1: relative flow change = 0.002166
                        maximum  flow change = 0.2242 for Link p110
                        maximum  head error  = 0.0000 for Link p110

    12:10:00: Balanced after 1 trials
   
    12:15:00: Balancing the network:

              Trial  1: relative flow change = 0.002132
                        maximum  flow change = 0.2329 for Link p227
                        maximum  head error  = 0.0000 for Link p110

    12:15:00: Balanced after 1 trials
   
    12:20:00: Balancing the network:

              Trial  1: relative flow change = 0.001935
                        maximum  flow change = 0.2264 for Link p227
                        maximum  head error  = 0.0000 for Link p110

    12:20:00: Balanced after 1 trials
   
    12:25:00: Balancing the network:

              Trial  1: relative flow change = 0.001688
                        maximum  flow change = 0.2026 for Link PRV-1
                        maximum  head error  = 0.0000 for Link p110

    12:25:00: Balanced after 1 trials
   
    12:30:00: Balancing the network:

              Trial  1: relative flow change = 0.001434
                        maximum  flow change = 0.1750 for Link PRV-1
                        maximum  head error  = 0.0000 for Link p110

    12:30:00: Balanced after 1 trials
   
    12:35:00: Balancing the network:

              Trial  1: relative flow change = 0.001153
                        maximum  flow change = 0.1475 for Link p235
                        maximum  head error  = 0.0000 for Link p110

    12:35:00: Balanced after 1 trials
   
    12:40:00: Balancing the network:

              Trial  1: relative flow change = 0.000946
                        maximum  flow change = 0.1182 for Link p235
                        maximum  head error  = 0.0000 for Link p110

    12:40:00: Balanced after 1 trials
   
    12:45:00: Balancing the network:

              Trial  1: relative flow change = 0.000775
                        maximum  flow change = 0.0966 for Link p235
                        maximum  head error  = 0.0000 for Link p110

    12:45:00: Balanced after 1 trials
   
    12:50:00: Balancing the network:

              Trial  1: relative flow change = 0.000703
                        maximum  flow change = 0.0788 for Link p235
                        maximum  head error  = 0.0000 for Link p110

    12:50:00: Balanced after 1 trials
   
    12:55:00: Balancing the network:

              Trial  1: relative flow change = 0.000725
                        maximum  flow change = 0.0729 for Link PRV-1
                        maximum  head error  = 0.0000 for Link p110

    12:55:00: Balanced after 1 trials
   
    13:00:00: Balancing the network:

              Trial  1: relative flow change = 0.000893
                        maximum  flow change = 0.0908 for Link p110
                        maximum  head error  = 0.0000 for Link p110

    13:00:00: Balanced after 1 trials
   
    13:05:00: Balancing the network:

              Trial  1: relative flow change = 0.001068
                        maximum  flow change = 0.1082 for Link p110
                        maximum  head error  = 0.0000 for Link p110

    13:05:00: Balanced after 1 trials
   
    13:10:00: Balancing the network:

              Trial  1: relative flow change = 0.001398
                        maximum  flow change = 0.1435 for Link p110
                        maximum  head error  = 0.0000 for Link p110

    13:10:00: Balanced after 1 trials
   
    13:15:00: Balancing the network:

              Trial  1: relative flow change = 0.001769
                        maximum  flow change = 0.1816 for Link p110
                        maximum  head error  = 0.0000 for Link p110

    13:15:00: Balanced after 1 trials
   
    13:20:00: Balancing the network:

              Trial  1: relative flow change = 0.002156
                        maximum  flow change = 0.2217 for Link p110
                        maximum  head error  = 0.0000 for Link p110

    13:20:00: Balanced after 1 trials
   
    13:25:00: Balancing the network:

              Trial  1: relative flow change = 0.002488
                        maximum  flow change = 0.2540 for Link p110
                        maximum  head error  = 0.0000 for Link p110

    13:25:00: Balanced after 1 trials
   
    13:30:00: Balancing the network:

              Trial  1: relative flow change = 0.002741
                        maximum  flow change = 0.2790 for Link p110
                        maximum  head error  = 0.0000 for Link p110

    13:30:00: Balanced after 1 trials
   
    13:35:00: Balancing the network:

              Trial  1: relative flow change = 0.003009
                        maximum  flow change = 0.3047 for Link p110
                        maximum  head error  = 0.0000 for Link p110

    13:35:00: Balanced after 1 trials
   
    13:40:00: Balancing the network:

              Trial  1: relative flow change = 0.003105
                        maximum  flow change = 0.3138 for Link PRV-1
                        maximum  head error  = 0.0000 for Link p110

    13:40:00: Balanced after 1 trials
   
    13:45:00: Balancing the network:

              Trial  1: relative flow change = 0.003143
                        maximum  flow change = 0.3213 for Link p227
                        maximum  head error  = 0.0000 for Link p110

    13:45:00: Balanced after 1 trials
   
    13:50:00: Balancing the network:

              Trial  1: relative flow change = 0.003157
                        maximum  flow change = 0.3242 for Link p227
                        maximum  head error  = 0.0000 for Link p110

    13:50:00: Balanced after 1 trials
   
    13:55:00: Balancing the network:

              Trial  1: relative flow change = 0.003112
                        maximum  flow change = 0.3255 for Link PRV-1
                        maximum  head error  = 0.0000 for Link p110

    13:55:00: Balanced after 1 trials
   
    14:00:00: Balancing the network:

              Trial  1: relative flow change = 0.003050
                        maximum  flow change = 0.3205 for Link PRV-1
                        maximum  head error  = 0.0000 for Link p110

    14:00:00: Balanced after 1 trials
   
    14:05:00: Balancing the network:

              Trial  1: relative flow change = 0.003123
                        maximum  flow change = 0.3143 for Link p227
                        maximum  head error  = 0.0000 for Link p110

    14:05:00: Balanced after 1 trials
   
    14:10:00: Balancing the network:

              Trial  1: relative flow change = 0.003142
                        maximum  flow change = 0.3233 for Link PRV-1
                        maximum  head error  = 0.0000 for Link p110

    14:10:00: Balanced after 1 trials
   
    14:15:00: Balancing the network:

              Trial  1: relative flow change = 0.003253
                        maximum  flow change = 0.3234 for Link p227
                        maximum  head error  = 0.0000 for Link p110

    14:15:00: Balanced after 1 trials
   
    14:20:00: Balancing the network:

              Trial  1: relative flow change = 0.003454
                        maximum  flow change = 0.3346 for Link p227
                        maximum  head error  = 0.0000 for Link p110

    14:20:00: Balanced after 1 trials
   
    14:25:00: Balancing the network:

              Trial  1: relative flow change = 0.003714
                        maximum  flow change = 0.3546 for Link PRV-1
                        maximum  head error  = 0.0000 for Link p110

    14:25:00: Balanced after 1 trials
   
    14:30:00: Balancing the network:

              Trial  1: relative flow change = 0.004079
                        maximum  flow change = 0.3854 for Link p110
                        maximum  head error  = 0.0000 for Link p110

    14:30:00: Balanced after 1 trials
   
    14:35:00: Balancing the network:

              Trial  1: relative flow change = 0.004549
                        maximum  flow change = 0.4304 for Link p110
                        maximum  head error  = 0.0000 for Link p110

    14:35:00: Balanced after 1 trials
   
    14:40:00: Balancing the network:

              Trial  1: relative flow change = 0.005130
                        maximum  flow change = 0.4846 for Link p110
                        maximum  head error  = 0.0000 for Link p110

    14:40:00: Balanced after 1 trials
   
    14:45:00: Balancing the network:

              Trial  1: relative flow change = 0.005868
                        maximum  flow change = 0.5535 for Link p110
                        maximum  head error  = 0.0000 for Link p110

    14:45:00: Balanced after 1 trials
   
    14:50:00: Balancing the network:

              Trial  1: relative flow change = 0.006573
                        maximum  flow change = 0.6157 for Link p110
                        maximum  head error  = 0.0000 for Link p110

    14:50:00: Balanced after 1 trials
   
    14:55:00: Balancing the network:

              Trial  1: relative flow change = 0.007170
                        maximum  flow change = 0.6661 for Link p110
                        maximum  head error  = 0.0000 for Link p110

    14:55:00: Balanced after 1 trials
   
    15:00:00: Balancing the network:

              Trial  1: relative flow change = 0.007749
                        maximum  flow change = 0.7159 for Link p110
                        maximum  head error  = 0.0000 for Link p110

    15:00:00: Balanced after 1 trials
   
    15:05:00: Balancing the network:

              Trial  1: relative flow change = 0.008061
                        maximum  flow change = 0.7611 for Link PRV-1
                        maximum  head error  = 0.0000 for Link p110

    15:05:00: Balanced after 1 trials
   
    15:10:00: Balancing the network:

              Trial  1: relative flow change = 0.007984
                        maximum  flow change = 0.7819 for Link PRV-1
                        maximum  head error  = 0.0000 for Link p110

    15:10:00: Balanced after 1 trials
   
    15:15:00: Balancing the network:

              Trial  1: relative flow change = 0.007625
                        maximum  flow change = 0.7644 for Link p227
                        maximum  head error  = 0.0000 for Link p110

    15:15:00: Balanced after 1 trials
   
    15:20:00: Balancing the network:

              Trial  1: relative flow change = 0.007083
                        maximum  flow change = 0.7213 for Link PRV-1
                        maximum  head error  = 0.0000 for Link p110

    15:20:00: Balanced after 1 trials
   
    15:25:00: Balancing the network:

              Trial  1: relative flow change = 0.006208
                        maximum  flow change = 0.6623 for Link p227
                        maximum  head error  = 0.0000 for Link p110

    15:25:00: Balanced after 1 trials
   
    15:30:00: Balancing the network:

              Trial  1: relative flow change = 0.005349
                        maximum  flow change = 0.5718 for Link PRV-1
                        maximum  head error  = 0.0000 for Link p110

    15:30:00: Balanced after 1 trials
   
    15:35:00: Balancing the network:

              Trial  1: relative flow change = 0.004378
                        maximum  flow change = 0.4875 for Link PRV-1
                        maximum  head error  = 0.0000 for Link p110

    15:35:00: Balanced after 1 trials
   
    15:40:00: Balancing the network:

              Trial  1: relative flow change = 0.003556
                        maximum  flow change = 0.3927 for Link p227
                        maximum  head error  = 0.0000 for Link p110

    15:40:00: Balanced after 1 trials
   
    15:45:00: Balancing the network:

              Trial  1: relative flow change = 0.002800
                        maximum  flow change = 0.3174 for Link p235
                        maximum  head error  = 0.0000 for Link p110

    15:45:00: Balanced after 1 trials
   
    15:50:00: Balancing the network:

              Trial  1: relative flow change = 0.002134
                        maximum  flow change = 0.2491 for Link p235
                        maximum  head error  = 0.0000 for Link p110

    15:50:00: Balanced after 1 trials
   
    15:55:00: Balancing the network:

              Trial  1: relative flow change = 0.001539
                        maximum  flow change = 0.1886 for Link p235
                        maximum  head error  = 0.0000 for Link p235

    15:55:00: Balanced after 1 trials
   
    16:00:00: Balancing the network:

              Trial  1: relative flow change = 0.001018
                        maximum  flow change = 0.1344 for Link p235
                        maximum  head error  = 0.0000 for Link p235

    16:00:00: Balanced after 1 trials
   
    16:05:00: Balancing the network:

              Trial  1: relative flow change = 0.000449
                        maximum  flow change = 0.0869 for Link PRV-2
                        maximum  head error  = 0.0000 for Link p235

    16:05:00: Balanced after 1 trials
   
    16:10:00: Balancing the network:

              Trial  1: relative flow change = 0.000425
                        maximum  flow change = 0.0263 for Link p110
                        maximum  head error  = 0.0000 for Link p110

    16:10:00: Balanced after 1 trials
   
    16:15:00: Balancing the network:

              Trial  1: relative flow change = 0.000882
                        maximum  flow change = 0.0740 for Link p110
                        maximum  head error  = 0.0000 for Link p110

    16:15:00: Balanced after 1 trials
   
    16:20:00: Balancing the network:

              Trial  1: relative flow change = 0.001385
                        maximum  flow change = 0.1187 for Link p110
                        maximum  head error  = 0.0000 for Link p110

    16:20:00: Balanced after 1 trials
   
    16:25:00: Balancing the network:

              Trial  1: relative flow change = 0.001822
                        maximum  flow change = 0.1572 for Link p110
                        maximum  head error  = 0.0000 for Link p110

    16:25:00: Balanced after 1 trials
   
    16:30:00: Balancing the network:

              Trial  1: relative flow change = 0.002066
                        maximum  flow change = 0.1769 for Link p110
                        maximum  head error  = 0.0000 for Link p110

    16:30:00: Balanced after 1 trials
   
    16:35:00: Balancing the network:

              Trial  1: relative flow change = 0.002116
                        maximum  flow change = 0.1934 for Link p227
                        maximum  head error  = 0.0000 for Link p110

    16:35:00: Balanced after 1 trials
   
    16:40:00: Balancing the network:

              Trial  1: relative flow change = 0.002122
                        maximum  flow change = 0.1964 for Link p227
                        maximum  head error  = 0.0000 for Link p110

    16:40:00: Balanced after 1 trials
   
    16:45:00: Balancing the network:

              Trial  1: relative flow change = 0.002138
                        maximum  flow change = 0.1968 for Link p227
                        maximum  head error  = 0.0000 for Link p110

    16:45:00: Balanced after 1 trials
   
    16:50:00: Balancing the network:

              Trial  1: relative flow change = 0.002085
                        maximum  flow change = 0.1985 for Link PRV-1
                        maximum  head error  = 0.0000 for Link p110

    16:50:00: Balanced after 1 trials
   
    16:55:00: Balancing the network:

              Trial  1: relative flow change = 0.002078
                        maximum  flow change = 0.1934 for Link p227
                        maximum  head error  = 0.0000 for Link p110

    16:55:00: Balanced after 1 trials
   
    17:00:00: Balancing the network:

              Trial  1: relative flow change = 0.002156
                        maximum  flow change = 0.1939 for Link PRV-1
                        maximum  head error  = 0.0000 for Link p110

    17:00:00: Balanced after 1 trials
   
    17:05:00: Balancing the network:

              Trial  1: relative flow change = 0.002311
                        maximum  flow change = 0.2029 for Link PRV-1
                        maximum  head error  = 0.0000 for Link p110

    17:05:00: Balanced after 1 trials
   
    17:10:00: Balancing the network:

              Trial  1: relative flow change = 0.002413
                        maximum  flow change = 0.2195 for Link PRV-1
                        maximum  head error  = 0.0000 for Link p110

    17:10:00: Balanced after 1 trials
   
    17:15:00: Balancing the network:

              Trial  1: relative flow change = 0.002454
                        maximum  flow change = 0.2295 for Link p227
                        maximum  head error  = 0.0000 for Link p110

    17:15:00: Balanced after 1 trials
   
    17:20:00: Balancing the network:

              Trial  1: relative flow change = 0.002412
                        maximum  flow change = 0.2333 for Link PRV-1
                        maximum  head error  = 0.0000 for Link p110

    17:20:00: Balanced after 1 trials
   
    17:23:59: Pump PUMP_1 changed by Tank T1 control
    17:23:59: Balancing the network:

              Trial  1: relative flow change = 0.999990
              Trial  2: relative flow change = 1.009994
              PRV PRV-3 switched from active to open
              Pump PUMP_1 switched from open to closed
              Trial  3: relative flow change = 6.309019
              PRV PRV-1 switched from active to open
              PRV PRV-2 switched from active to open
              PRV PRV-3 switched from open to active
              Trial  4: relative flow change = 1.308750
              PRV PRV-1 switched from open to closed
              PRV PRV-2 switched from open to active
              Pump PUMP_1 switched from closed to open
              Trial  5: relative flow change = 2.267858
              PRV PRV-2 switched from active to open
              Trial  6: relative flow change = 1.251113
              PRV PRV-2 switched from open to active
              Trial  7: relative flow change = 1.125611
              PRV PRV-1 switched from closed to active
              Trial  8: relative flow change = 1.149585
              Trial  9: relative flow change = 1.146102
              Trial 10: relative flow change = 1.132501
              Trial 11: relative flow change = 1.114590
              Trial 12: relative flow change = 1.078816
              Trial 13: relative flow change = 1.006872
              Trial 14: relative flow change = 0.880523
              Trial 15: relative flow change = 0.697357
              Trial 16: relative flow change = 0.403426
              Trial 17: relative flow change = 0.145841
              Trial 18: relative flow change = 0.035567
              Trial 19: relative flow change = 0.004627
                        maximum  flow change = 0.7432 for Link p235
                        maximum  head error  = 0.0000 for Link PUMP_1

    17:23:59: Balanced after 19 trials
    17:23:59: Tank T1 is filling at 2.40 m
    17:23:59: Pump PUMP_1 changed from closed to open
   
    17:25:00: Balancing the network:

              Trial  1: relative flow change = 0.001759
                        maximum  flow change = 0.2015 for Link p110
                        maximum  head error  = 0.0000 for Link PUMP_1

    17:25:00: Balanced after 1 trials
   
    17:30:00: Balancing the network:

              Trial  1: relative flow change = 0.001492
                        maximum  flow change = 0.2188 for Link PRV-1
                        maximum  head error  = 0.0000 for Link PUMP_1

    17:30:00: Balanced after 1 trials
   
    17:35:00: Balancing the network:

              Trial  1: relative flow change = 0.001331
                        maximum  flow change = 0.2032 for Link p227
                        maximum  head error  = 0.0000 for Link PUMP_1

    17:35:00: Balanced after 1 trials
   
    17:40:00: Balancing the network:

              Trial  1: relative flow change = 0.001180
                        maximum  flow change = 0.1822 for Link PRV-1
                        maximum  head error  = 0.0000 for Link PUMP_1

    17:40:00: Balanced after 1 trials
   
    17:45:00: Balancing the network:

              Trial  1: relative flow change = 0.001113
                        maximum  flow change = 0.1608 for Link p227
                        maximum  head error  = 0.0000 for Link PUMP_1

    17:45:00: Balanced after 1 trials
   
    17:50:00: Balancing the network:

              Trial  1: relative flow change = 0.001122
                        maximum  flow change = 0.1525 for Link PRV-1
                        maximum  head error  = 0.0000 for Link PUMP_1

    17:50:00: Balanced after 1 trials
   
    17:55:00: Balancing the network:

              Trial  1: relative flow change = 0.001206
                        maximum  flow change = 0.1547 for Link PRV-1
                        maximum  head error  = 0.0000 for Link PUMP_1

    17:55:00: Balanced after 1 trials
   
    18:00:00: Balancing the network:

              Trial  1: relative flow change = 0.001303
                        maximum  flow change = 0.1678 for Link p227
                        maximum  head error  = 0.0000 for Link PUMP_1

    18:00:00: Balanced after 1 trials
   
    18:05:00: Balancing the network:

              Trial  1: relative flow change = 0.001414
                        maximum  flow change = 0.1819 for Link PRV-1
                        maximum  head error  = 0.0000 for Link PUMP_1

    18:05:00: Balanced after 1 trials
   
    18:10:00: Balancing the network:

              Trial  1: relative flow change = 0.001526
                        maximum  flow change = 0.1981 for Link p227
                        maximum  head error  = 0.0000 for Link PUMP_1

    18:10:00: Balanced after 1 trials
   
    18:15:00: Balancing the network:

              Trial  1: relative flow change = 0.001616
                        maximum  flow change = 0.2139 for Link PRV-1
                        maximum  head error  = 0.0000 for Link PUMP_1

    18:15:00: Balanced after 1 trials
   
    18:20:00: Balancing the network:

              Trial  1: relative flow change = 0.001658
                        maximum  flow change = 0.2263 for Link PRV-1
                        maximum  head error  = 0.0000 for Link PUMP_1

    18:20:00: Balanced after 1 trials
   
    18:25:00: Balancing the network:

              Trial  1: relative flow change = 0.001706
                        maximum  flow change = 0.2321 for Link p227
                        maximum  head error  = 0.0000 for Link PUMP_1

    18:25:00: Balanced after 1 trials
   
    18:30:00: Balancing the network:

              Trial  1: relative flow change = 0.001769
                        maximum  flow change = 0.2390 for Link PRV-1
                        maximum  head error  = 0.0000 for Link PUMP_1

    18:30:00: Balanced after 1 trials
   
    18:35:00: Balancing the network:

              Trial  1: relative flow change = 0.001767
                        maximum  flow change = 0.2478 for Link PRV-1
                        maximum  head error  = 0.0000 for Link PUMP_1

    18:35:00: Balanced after 1 trials
   
    18:40:00: Balancing the network:

              Trial  1: relative flow change = 0.001766
                        maximum  flow change = 0.2464 for Link PRV-1
                        maximum  head error  = 0.0000 for Link PUMP_1

    18:40:00: Balanced after 1 trials
   
    18:45:00: Balancing the network:

              Trial  1: relative flow change = 0.001648
                        maximum  flow change = 0.2459 for Link PRV-1
                        maximum  head error  = 0.0000 for Link PUMP_1

    18:45:00: Balanced after 1 trials
   
    18:50:00: Balancing the network:

              Trial  1: relative flow change = 0.001496
                        maximum  flow change = 0.2277 for Link p227
                        maximum  head error  = 0.0000 for Link PUMP_1

    18:50:00: Balanced after 1 trials
   
    18:55:00: Balancing the network:

              Trial  1: relative flow change = 0.001239
                        maximum  flow change = 0.2062 for Link p227
                        maximum  head error  = 0.0000 for Link PUMP_1

    18:55:00: Balanced after 1 trials
   
    19:00:00: Balancing the network:

              Trial  1: relative flow change = 0.000841
                        maximum  flow change = 0.1692 for Link PRV-1
                        maximum  head error  = 0.0000 for Link PUMP_1

    19:00:00: Balanced after 1 trials
   
    19:05:00: Balancing the network:

              Trial  1: relative flow change = 0.000513
                        maximum  flow change = 0.1118 for Link p227
                        maximum  head error  = 0.0000 for Link PUMP_1

    19:05:00: Balanced after 1 trials
   
    19:10:00: Balancing the network:

              Trial  1: relative flow change = 0.000241
                        maximum  flow change = 0.0667 for Link p227
                        maximum  head error  = 0.0000 for Link PUMP_1

    19:10:00: Balanced after 1 trials
   
    19:15:00: Balancing the network:

              Trial  1: relative flow change = 0.000102
                        maximum  flow change = 0.0287 for Link PRV-1
                        maximum  head error  = 0.0000 for Link PUMP_1

    19:15:00: Balanced after 1 trials
   
    19:20:00: Balancing the network:

              Trial  1: relative flow change = 0.000161
                        maximum  flow change = 0.0181 for Link p110
                        maximum  head error  = 0.0000 for Link PUMP_1

    19:20:00: Balanced after 1 trials
   
    19:25:00: Balancing the network:

              Trial  1: relative flow change = 0.000431
                        maximum  flow change = 0.0566 for Link p110
                        maximum  head error  = 0.0000 for Link PUMP_1

    19:25:00: Balanced after 1 trials
   
    19:30:00: Balancing the network:

              Trial  1: relative flow change = 0.000824
                        maximum  flow change = 0.1096 for Link p110
                        maximum  head error  = 0.0000 for Link PUMP_1

    19:30:00: Balanced after 1 trials
   
    19:35:00: Balancing the network:

              Trial  1: relative flow change = 0.001239
                        maximum  flow change = 0.1639 for Link p110
                        maximum  head error  = 0.0000 for Link PUMP_1

    19:35:00: Balanced after 1 trials
   
    19:40:00: Balancing the network:

              Trial  1: relative flow change = 0.001480
                        maximum  flow change = 0.1928 for Link p110
                        maximum  head error  = 0.0000 for Link PUMP_1

    19:40:00: Balanced after 1 trials
   
    19:45:00: Balancing the network:

              Trial  1: relative flow change = 0.001474
                        maximum  flow change = 0.2126 for Link PRV-1
                        maximum  head error  = 0.0000 for Link PUMP_1

    19:45:00: Balanced after 1 trials
   
    19:50:00: Balancing the network:

              Trial  1: relative flow change = 0.001139
                        maximum  flow change = 0.2088 for Link p227
                        maximum  head error  = 0.0000 for Link PUMP_1

    19:50:00: Balanced after 1 trials
   
    19:55:00: Balancing the network:

              Trial  1: relative flow change = 0.000494
                        maximum  flow change = 0.1568 for Link PRV-1
                        maximum  head error  = 0.0000 for Link PUMP_1

    19:55:00: Balanced after 1 trials
   
    20:00:00: Balancing the network:

              Trial  1: relative flow change = 0.000446
                        maximum  flow change = 0.0624 for Link p110
                        maximum  head error  = 0.0000 for Link PUMP_1

    20:00:00: Balanced after 1 trials
   
    20:05:00: Balancing the network:

              Trial  1: relative flow change = 0.001159
                        maximum  flow change = 0.1655 for Link p110
                        maximum  head error  = 0.0000 for Link PUMP_1

    20:05:00: Balanced after 1 trials
   
    20:10:00: Balancing the network:

              Trial  1: relative flow change = 0.001685
                        maximum  flow change = 0.2315 for Link p110
                        maximum  head error  = 0.0000 for Link PUMP_1

    20:10:00: Balanced after 1 trials
   
    20:15:00: Balancing the network:

              Trial  1: relative flow change = 0.001824
                        maximum  flow change = 0.2451 for Link p110
                        maximum  head error  = 0.0000 for Link PUMP_1

    20:15:00: Balanced after 1 trials
   
    20:20:00: Balancing the network:

              Trial  1: relative flow change = 0.001361
                        maximum  flow change = 0.2510 for Link p227
                        maximum  head error  = 0.0000 for Link PUMP_1

    20:20:00: Balanced after 1 trials
   
    20:25:00: Balancing the network:

              Trial  1: relative flow change = 0.000420
                        maximum  flow change = 0.1790 for Link p227
                        maximum  head error  = 0.0000 for Link PUMP_1

    20:25:00: Balanced after 1 trials
   
    20:30:00: Balancing the network:

              Trial  1: relative flow change = 0.000908
                        maximum  flow change = 0.1199 for Link p110
                        maximum  head error  = 0.0000 for Link PUMP_1

    20:30:00: Balanced after 1 trials
   
    20:35:00: Balancing the network:

              Trial  1: relative flow change = 0.002157
                        maximum  flow change = 0.2959 for Link p110
                        maximum  head error  = 0.0000 for Link PUMP_1

    20:35:00: Balanced after 1 trials
   
    20:40:00: Balancing the network:

              Trial  1: relative flow change = 0.003158
                        maximum  flow change = 0.4269 for Link p110
                        maximum  head error  = 0.0000 for Link PUMP_1

    20:40:00: Balanced after 1 trials
   
    20:45:00: Balancing the network:

              Trial  1: relative flow change = 0.003689
                        maximum  flow change = 0.4941 for Link p110
                        maximum  head error  = 0.0000 for Link PUMP_1

    20:45:00: Balanced after 1 trials
   
    20:50:00: Balancing the network:

              Trial  1: relative flow change = 0.003687
                        maximum  flow change = 0.5290 for Link p227
                        maximum  head error  = 0.0000 for Link PUMP_1

    20:50:00: Balanced after 1 trials
   
    20:55:00: Balancing the network:

              Trial  1: relative flow change = 0.002996
                        maximum  flow change = 0.5241 for Link PRV-1
                        maximum  head error  = 0.0000 for Link PUMP_1

    20:55:00: Balanced after 1 trials
   
    21:00:00: Balancing the network:

              Trial  1: relative flow change = 0.001926
                        maximum  flow change = 0.4194 for Link p227
                        maximum  head error  = 0.0000 for Link PUMP_1

    21:00:00: Balanced after 1 trials
   
    21:05:00: Balancing the network:

              Trial  1: relative flow change = 0.000602
                        maximum  flow change = 0.2639 for Link PRV-1
                        maximum  head error  = 0.0000 for Link PUMP_1

    21:05:00: Balanced after 1 trials
   
    21:10:00: Balancing the network:

              Trial  1: relative flow change = 0.000827
                        maximum  flow change = 0.1189 for Link p110
                        maximum  head error  = 0.0000 for Link PUMP_1

    21:10:00: Balanced after 1 trials
   
    21:15:00: Balancing the network:

              Trial  1: relative flow change = 0.001907
                        maximum  flow change = 0.2708 for Link p110
                        maximum  head error  = 0.0000 for Link PUMP_1

    21:15:00: Balanced after 1 trials
   
    21:20:00: Balancing the network:

              Trial  1: relative flow change = 0.002779
                        maximum  flow change = 0.3838 for Link p110
                        maximum  head error  = 0.0000 for Link PUMP_1

    21:20:00: Balanced after 1 trials
   
    21:25:00: Balancing the network:

              Trial  1: relative flow change = 0.003442
                        maximum  flow change = 0.4684 for Link p110
                        maximum  head error  = 0.0000 for Link PUMP_1

    21:25:00: Balanced after 1 trials
   
    21:30:00: Balancing the network:

              Trial  1: relative flow change = 0.004038
                        maximum  flow change = 0.5448 for Link p110
                        maximum  head error  = 0.0000 for Link PUMP_1

    21:30:00: Balanced after 1 trials
   
    21:35:00: Balancing the network:

              Trial  1: relative flow change = 0.004677
                        maximum  flow change = 0.6266 for Link p110
                        maximum  head error  = 0.0000 for Link PUMP_1

    21:35:00: Balanced after 1 trials
   
    21:40:00: Balancing the network:

              Trial  1: relative flow change = 0.005526
                        maximum  flow change = 0.7359 for Link p110
                        maximum  head error  = 0.0000 for Link PUMP_1

    21:40:00: Balanced after 1 trials
   
    21:45:00: Balancing the network:

              Trial  1: relative flow change = 0.006610
                        maximum  flow change = 0.8741 for Link p110
                        maximum  head error  = 0.0000 for Link PUMP_1

    21:45:00: Balanced after 1 trials
   
    21:50:00: Balancing the network:

              Trial  1: relative flow change = 0.007919
                        maximum  flow change = 1.0378 for Link p110
                        maximum  head error  = 0.0000 for Link PUMP_1

    21:50:00: Balanced after 1 trials
   
    21:55:00: Balancing the network:

              Trial  1: relative flow change = 0.009111
                        maximum  flow change = 1.1782 for Link p110
                        maximum  head error  = 0.0000 for Link PUMP_1

    21:55:00: Balanced after 1 trials
[...]

   162:40:00: Balanced after 1 trials
   
   162:45:00: Balancing the network:

              Trial  1: relative flow change = 0.002648
                        maximum  flow change = 0.2811 for Link p227
                        maximum  head error  = 0.0000 for Link p110

   162:45:00: Balanced after 1 trials
   
   162:50:00: Balancing the network:

              Trial  1: relative flow change = 0.002325
                        maximum  flow change = 0.2514 for Link p227
                        maximum  head error  = 0.0000 for Link p110

   162:50:00: Balanced after 1 trials
   
   162:55:00: Balancing the network:

              Trial  1: relative flow change = 0.001855
                        maximum  flow change = 0.2202 for Link PRV-1
                        maximum  head error  = 0.0000 for Link p110

   162:55:00: Balanced after 1 trials
   
   163:00:00: Balancing the network:

              Trial  1: relative flow change = 0.001446
                        maximum  flow change = 0.1739 for Link p227
                        maximum  head error  = 0.0000 for Link p110

   163:00:00: Balanced after 1 trials
   
   163:05:00: Balancing the network:

              Trial  1: relative flow change = 0.000961
                        maximum  flow change = 0.1353 for Link p227
                        maximum  head error  = 0.0000 for Link p235

   163:05:00: Balanced after 1 trials
   
   163:06:45: Pump PUMP_1 changed by Tank T1 control
   163:06:45: Balancing the network:

              Trial  1: relative flow change = 0.999990
              Trial  2: relative flow change = 1.009703
              PRV PRV-3 switched from active to open
              Pump PUMP_1 switched from open to closed
              Trial  3: relative flow change = 6.410251
              PRV PRV-1 switched from active to open
              PRV PRV-2 switched from active to open
              PRV PRV-3 switched from open to active
              Trial  4: relative flow change = 1.314987
              PRV PRV-1 switched from open to closed
              PRV PRV-2 switched from open to active
              Pump PUMP_1 switched from closed to open
              Trial  5: relative flow change = 2.280181
              PRV PRV-2 switched from active to open
              Trial  6: relative flow change = 1.251096
              PRV PRV-2 switched from open to active
              Trial  7: relative flow change = 1.123593
              PRV PRV-1 switched from closed to active
              Trial  8: relative flow change = 1.148701
              Trial  9: relative flow change = 1.147344
              Trial 10: relative flow change = 1.133113
              Trial 11: relative flow change = 1.113483
              Trial 12: relative flow change = 1.075283
              Trial 13: relative flow change = 1.000053
              Trial 14: relative flow change = 0.869969
              Trial 15: relative flow change = 0.690407
              Trial 16: relative flow change = 0.385691
              Trial 17: relative flow change = 0.141190
              Trial 18: relative flow change = 0.033606
              Trial 19: relative flow change = 0.004367
                        maximum  flow change = 0.7636 for Link p235
                        maximum  head error  = 0.0000 for Link PUMP_1

   163:06:45: Balanced after 19 trials
   163:06:45: Tank T1 is filling at 2.40 m
   163:06:45: Pump PUMP_1 changed from closed to open
   
   163:10:00: Balancing the network:

              Trial  1: relative flow change = 0.000787
                        maximum  flow change = 0.1571 for Link p661
                        maximum  head error  = 0.0000 for Link PUMP_1

   163:10:00: Balanced after 1 trials
   
   163:15:00: Balancing the network:

              Trial  1: relative flow change = 0.000306
                        maximum  flow change = 0.0584 for Link p227
                        maximum  head error  = 0.0000 for Link PUMP_1

   163:15:00: Balanced after 1 trials
   
   163:20:00: Balancing the network:

              Trial  1: relative flow change = 0.000303
                        maximum  flow change = 0.0367 for Link PRV-1
                        maximum  head error  = 0.0000 for Link PUMP_1

   163:20:00: Balanced after 1 trials
   
   163:25:00: Balancing the network:

              Trial  1: relative flow change = 0.000444
                        maximum  flow change = 0.0550 for Link p110
                        maximum  head error  = 0.0000 for Link PUMP_1

   163:25:00: Balanced after 1 trials
   
   163:30:00: Balancing the network:

              Trial  1: relative flow change = 0.000638
                        maximum  flow change = 0.0795 for Link p110
                        maximum  head error  = 0.0000 for Link PUMP_1

   163:30:00: Balanced after 1 trials
   
   163:35:00: Balancing the network:

              Trial  1: relative flow change = 0.000878
                        maximum  flow change = 0.1094 for Link p110
                        maximum  head error  = 0.0000 for Link PUMP_1

   163:35:00: Balanced after 1 trials
   
   163:40:00: Balancing the network:

              Trial  1: relative flow change = 0.001027
                        maximum  flow change = 0.1259 for Link p110
                        maximum  head error  = 0.0000 for Link PUMP_1

   163:40:00: Balanced after 1 trials
   
   163:45:00: Balancing the network:

              Trial  1: relative flow change = 0.001060
                        maximum  flow change = 0.1439 for Link p227
                        maximum  head error  = 0.0000 for Link PUMP_1

   163:45:00: Balanced after 1 trials
   
   163:50:00: Balancing the network:

              Trial  1: relative flow change = 0.000854
                        maximum  flow change = 0.1468 for Link p227
                        maximum  head error  = 0.0000 for Link PUMP_1

   163:50:00: Balanced after 1 trials
   
   163:55:00: Balancing the network:

              Trial  1: relative flow change = 0.000466
                        maximum  flow change = 0.1144 for Link p227
                        maximum  head error  = 0.0000 for Link PUMP_1

   163:55:00: Balanced after 1 trials
   
   164:00:00: Balancing the network:

              Trial  1: relative flow change = 0.000248
                        maximum  flow change = 0.0554 for Link PRV-1
                        maximum  head error  = 0.0000 for Link PUMP_1

   164:00:00: Balanced after 1 trials
   
   164:05:00: Balancing the network:

              Trial  1: relative flow change = 0.000549
                        maximum  flow change = 0.0789 for Link p110
                        maximum  head error  = 0.0000 for Link PUMP_1

   164:05:00: Balanced after 1 trials
   
   164:10:00: Balancing the network:

              Trial  1: relative flow change = 0.000792
                        maximum  flow change = 0.1080 for Link p110
                        maximum  head error  = 0.0000 for Link PUMP_1

   164:10:00: Balanced after 1 trials
   
   164:15:00: Balancing the network:

              Trial  1: relative flow change = 0.000797
                        maximum  flow change = 0.1093 for Link p235
                        maximum  head error  = 0.0000 for Link PUMP_1

   164:15:00: Balanced after 1 trials
   
   164:20:00: Balancing the network:

              Trial  1: relative flow change = 0.000417
                        maximum  flow change = 0.1064 for Link p235
                        maximum  head error  = 0.0000 for Link PUMP_1

   164:20:00: Balanced after 1 trials
   
   164:25:00: Balancing the network:

              Trial  1: relative flow change = 0.000385
                        maximum  flow change = 0.0503 for Link PRV-2
                        maximum  head error  = 0.0000 for Link PUMP_1

   164:25:00: Balanced after 1 trials
   
   164:30:00: Balancing the network:

              Trial  1: relative flow change = 0.001227
                        maximum  flow change = 0.1672 for Link p110
                        maximum  head error  = 0.0000 for Link PUMP_1

   164:30:00: Balanced after 1 trials
   
   164:35:00: Balancing the network:

              Trial  1: relative flow change = 0.002143
                        maximum  flow change = 0.2879 for Link p110
                        maximum  head error  = 0.0000 for Link PUMP_1

   164:35:00: Balanced after 1 trials
   
   164:40:00: Balancing the network:

              Trial  1: relative flow change = 0.002870
                        maximum  flow change = 0.3818 for Link p110
                        maximum  head error  = 0.0000 for Link PUMP_1

   164:40:00: Balanced after 1 trials
   
   164:45:00: Balancing the network:

              Trial  1: relative flow change = 0.003282
                        maximum  flow change = 0.4327 for Link p110
                        maximum  head error  = 0.0000 for Link PUMP_1

   164:45:00: Balanced after 1 trials
   
   164:50:00: Balancing the network:

              Trial  1: relative flow change = 0.003203
                        maximum  flow change = 0.4666 for Link PRV-1
                        maximum  head error  = 0.0000 for Link PUMP_1

   164:50:00: Balanced after 1 trials
   
   164:55:00: Balancing the network:

              Trial  1: relative flow change = 0.002719
                        maximum  flow change = 0.4517 for Link p227
                        maximum  head error  = 0.0000 for Link PUMP_1

   164:55:00: Balanced after 1 trials
   
   165:00:00: Balancing the network:

              Trial  1: relative flow change = 0.001927
                        maximum  flow change = 0.3806 for Link PRV-1
                        maximum  head error  = 0.0000 for Link PUMP_1

   165:00:00: Balanced after 1 trials
   
   165:05:00: Balancing the network:

              Trial  1: relative flow change = 0.000955
                        maximum  flow change = 0.2655 for Link PRV-1
                        maximum  head error  = 0.0000 for Link PUMP_1

   165:05:00: Balanced after 1 trials
   
   165:10:00: Balancing the network:

              Trial  1: relative flow change = 0.000300
                        maximum  flow change = 0.1238 for Link p227
                        maximum  head error  = 0.0000 for Link PUMP_1

   165:10:00: Balanced after 1 trials
   
   165:15:00: Balancing the network:

              Trial  1: relative flow change = 0.001049
                        maximum  flow change = 0.1529 for Link p110
                        maximum  head error  = 0.0000 for Link PUMP_1

   165:15:00: Balanced after 1 trials
   
   165:20:00: Balancing the network:

              Trial  1: relative flow change = 0.001854
                        maximum  flow change = 0.2574 for Link p110
                        maximum  head error  = 0.0000 for Link PUMP_1

   165:20:00: Balanced after 1 trials
   
   165:25:00: Balancing the network:

              Trial  1: relative flow change = 0.002583
                        maximum  flow change = 0.3520 for Link p110
                        maximum  head error  = 0.0000 for Link PUMP_1

   165:25:00: Balanced after 1 trials
   
   165:30:00: Balancing the network:

              Trial  1: relative flow change = 0.003376
                        maximum  flow change = 0.4557 for Link p110
                        maximum  head error  = 0.0000 for Link PUMP_1

   165:30:00: Balanced after 1 trials
   
   165:35:00: Balancing the network:

              Trial  1: relative flow change = 0.004326
                        maximum  flow change = 0.5797 for Link p110
                        maximum  head error  = 0.0000 for Link PUMP_1

   165:35:00: Balanced after 1 trials
   
   165:40:00: Balancing the network:

              Trial  1: relative flow change = 0.005419
                        maximum  flow change = 0.7203 for Link p110
                        maximum  head error  = 0.0000 for Link PUMP_1

   165:40:00: Balanced after 1 trials
   
   165:45:00: Balancing the network:

              Trial  1: relative flow change = 0.006790
                        maximum  flow change = 0.8965 for Link p110
                        maximum  head error  = 0.0000 for Link PUMP_1

   165:45:00: Balanced after 1 trials
   
   165:50:00: Balancing the network:

              Trial  1: relative flow change = 0.008175
                        maximum  flow change = 1.0666 for Link p110
                        maximum  head error  = 0.0000 for Link PUMP_1

   165:50:00: Balanced after 1 trials
   
   165:55:00: Balancing the network:

              Trial  1: relative flow change = 0.009438
                        maximum  flow change = 1.2156 for Link p110
                        maximum  head error  = 0.0000 for Link PUMP_1

   165:55:00: Balanced after 1 trials
   
   166:00:00: Balancing the network:

              Trial  1: relative flow change = 0.010322
              Trial  2: relative flow change = 0.001205
                        maximum  flow change = 1.3853 for Link p227
                        maximum  head error  = 0.0000 for Link p235

   166:00:00: Balanced after 2 trials
   
   166:05:00: Balancing the network:

              Trial  1: relative flow change = 0.009582
                        maximum  flow change = 1.3037 for Link p110
                        maximum  head error  = 0.0000 for Link PUMP_1

   166:05:00: Balanced after 1 trials
   
   166:10:00: Balancing the network:

              Trial  1: relative flow change = 0.010265
              Trial  2: relative flow change = 0.001176
                        maximum  flow change = 1.3389 for Link p227
                        maximum  head error  = 0.0000 for Link p235

   166:10:00: Balanced after 2 trials
   
   166:15:00: Balancing the network:

              Trial  1: relative flow change = 0.008142
                        maximum  flow change = 1.0851 for Link p110
                        maximum  head error  = 0.0000 for Link PUMP_1

   166:15:00: Balanced after 1 trials
   
   166:20:00: Balancing the network:

              Trial  1: relative flow change = 0.007701
                        maximum  flow change = 1.1453 for Link PRV-1
                        maximum  head error  = 0.0000 for Link PUMP_1

   166:20:00: Balanced after 1 trials
   
   166:25:00: Balancing the network:

              Trial  1: relative flow change = 0.006112
                        maximum  flow change = 0.9769 for Link p227
                        maximum  head error  = 0.0000 for Link PUMP_1

   166:25:00: Balanced after 1 trials
   
   166:30:00: Balancing the network:

              Trial  1: relative flow change = 0.004834
                        maximum  flow change = 0.7649 for Link PRV-1
                        maximum  head error  = 0.0000 for Link PUMP_1

   166:30:00: Balanced after 1 trials
   
   166:35:00: Balancing the network:

              Trial  1: relative flow change = 0.004055
                        maximum  flow change = 0.6029 for Link PRV-1
                        maximum  head error  = 0.0000 for Link PUMP_1

   166:35:00: Balanced after 1 trials
   
   166:40:00: Balancing the network:

              Trial  1: relative flow change = 0.004034
                        maximum  flow change = 0.5073 for Link p227
                        maximum  head error  = 0.0000 for Link PUMP_1

   166:40:00: Balanced after 1 trials
   
   166:45:00: Balancing the network:

              Trial  1: relative flow change = 0.004718
                        maximum  flow change = 0.5643 for Link p110
                        maximum  head error  = 0.0000 for Link PUMP_1

   166:45:00: Balanced after 1 trials
   
   166:50:00: Balancing the network:

              Trial  1: relative flow change = 0.005926
                        maximum  flow change = 0.7080 for Link p110
                        maximum  head error  = 0.0000 for Link PUMP_1

   166:50:00: Balanced after 1 trials
   
   166:55:00: Balancing the network:

              Trial  1: relative flow change = 0.007349
                        maximum  flow change = 0.8713 for Link p110
                        maximum  head error  = 0.0000 for Link PUMP_1

   166:55:00: Balanced after 1 trials
   
   167:00:00: Balancing the network:

              Trial  1: relative flow change = 0.008650
                        maximum  flow change = 1.0135 for Link p110
                        maximum  head error  = 0.0000 for Link PUMP_1

   167:00:00: Balanced after 1 trials
   
   167:05:00: Balancing the network:

              Trial  1: relative flow change = 0.009511
                        maximum  flow change = 1.0983 for Link p110
                        maximum  head error  = 0.0000 for Link PUMP_1

   167:05:00: Balanced after 1 trials
   
   167:10:00: Balancing the network:

              Trial  1: relative flow change = 0.009925
                        maximum  flow change = 1.1684 for Link PRV-1
                        maximum  head error  = 0.0000 for Link PUMP_1

   167:10:00: Balanced after 1 trials
   
   167:15:00: Balancing the network:

              Trial  1: relative flow change = 0.009731
                        maximum  flow change = 1.2023 for Link p227
                        maximum  head error  = 0.0000 for Link PUMP_1

   167:15:00: Balanced after 1 trials
   
   167:20:00: Balancing the network:

              Trial  1: relative flow change = 0.009244
                        maximum  flow change = 1.1613 for Link PRV-1
                        maximum  head error  = 0.0000 for Link PUMP_1

   167:20:00: Balanced after 1 trials
   
   167:25:00: Balancing the network:

              Trial  1: relative flow change = 0.008732
                        maximum  flow change = 1.0902 for Link PRV-1
                        maximum  head error  = 0.0000 for Link PUMP_1

   167:25:00: Balanced after 1 trials
   
   167:30:00: Balancing the network:

              Trial  1: relative flow change = 0.008429
                        maximum  flow change = 1.0195 for Link p227
                        maximum  head error  = 0.0000 for Link PUMP_1

   167:30:00: Balanced after 1 trials
   
   167:35:00: Balancing the network:

              Trial  1: relative flow change = 0.008536
                        maximum  flow change = 0.9766 for Link PRV-1
                        maximum  head error  = 0.0000 for Link PUMP_1

   167:35:00: Balanced after 1 trials
   
   167:40:00: Balancing the network:

              Trial  1: relative flow change = 0.009124
                        maximum  flow change = 0.9955 for Link p110
                        maximum  head error  = 0.0000 for Link PUMP_1

   167:40:00: Balanced after 1 trials
   
   167:45:00: Balancing the network:

              Trial  1: relative flow change = 0.010153
              Trial  2: relative flow change = 0.001374
                        maximum  flow change = 1.1520 for Link p227
                        maximum  head error  = 0.0000 for Link p235

   167:45:00: Balanced after 2 trials
   
   167:50:00: Balancing the network:

              Trial  1: relative flow change = 0.010306
              Trial  2: relative flow change = 0.001559
                        maximum  flow change = 1.2456 for Link PRV-1
                        maximum  head error  = 0.0000 for Link p235

   167:50:00: Balanced after 2 trials
   
   167:55:00: Balancing the network:

              Trial  1: relative flow change = 0.011402
              Trial  2: relative flow change = 0.001742
                        maximum  flow change = 1.3604 for Link p227
                        maximum  head error  = 0.0000 for Link p235

   167:55:00: Balanced after 2 trials
   
   168:00:00: Balancing the network:

              Trial  1: relative flow change = 0.012355
              Trial  2: relative flow change = 0.001907
                        maximum  flow change = 1.4533 for Link p227
                        maximum  head error  = 0.0000 for Link p235

   168:00:00: Balanced after 2 trials
   