  Page 1                                    Wed Jan 28 17:09:28 2026

  ******************************************************************
  *                           E P A N E T                          *
  *                   Hydraulic and Water Quality                  *
  *                   Analysis for Pipe Networks                   *
  *                         Version 2.2                            *
  ******************************************************************
  
  Analysis begun Wed Jan 28 17:09:28 2026

   
  Hydraulic Status:
  -----------------------------------------------------------------------
     0:00:00: Balancing the network:

              Trial  1: relative flow change = 7.467108
              PRV PRV-2 switched from active to closed
              Trial  2: relative flow change = 1.805172
              PRV PRV-1 switched from active to closed
              PRV PRV-2 switched from closed to active
              Trial  3: relative flow change = 1.201330
              Trial  4: relative flow change = 1.162222
              Trial  5: relative flow change = 1.140217
              Trial  6: relative flow change = 1.088759
              Trial  7: relative flow change = 0.888643
              Trial  8: relative flow change = 0.551816
              Trial  9: relative flow change = 0.205977
              Trial 10: relative flow change = 0.058074
              Trial 11: relative flow change = 0.013664
              Trial 12: relative flow change = 0.003737
                        maximum  flow change = 0.8020 for Link p290
                        maximum  head error  = 0.0000 for Link p830

     0:00:00: Balanced after 12 trials
     0:00:00: Reservoir R1 is closed
     0:00:00: Reservoir R2 is emptying
     0:00:00: Tank T1 is filling at 3.50 m
     0:00:00: PRV PRV-1 closed
   
     0:05:00: Balancing the network:

              Trial  1: relative flow change = 0.017872
              Trial  2: relative flow change = 0.002289
                        maximum  flow change = 2.9550 for Link PRV-2
                        maximum  head error  = 0.0000 for Link p336

     0:05:00: Balanced after 2 trials
   
     0:10:00: Balancing the network:

              Trial  1: relative flow change = 0.018093
              Trial  2: relative flow change = 0.002199
                        maximum  flow change = 2.9821 for Link p235
                        maximum  head error  = 0.0000 for Link p235

     0:10:00: Balanced after 2 trials
   
     0:15:00: Balancing the network:

              Trial  1: relative flow change = 0.017729
              Trial  2: relative flow change = 0.002352
                        maximum  flow change = 2.9449 for Link PRV-2
                        maximum  head error  = 0.0000 for Link p235

     0:15:00: Balanced after 2 trials
   
     0:20:00: Balancing the network:

              Trial  1: relative flow change = 0.017600
              Trial  2: relative flow change = 0.002618
                        maximum  flow change = 2.8730 for Link PRV-2
                        maximum  head error  = 0.0000 for Link p235

     0:20:00: Balanced after 2 trials
   
     0:25:00: Balancing the network:

              Trial  1: relative flow change = 0.017534
              Trial  2: relative flow change = 0.002429
                        maximum  flow change = 2.8104 for Link PRV-2
                        maximum  head error  = 0.0000 for Link p235

     0:25:00: Balanced after 2 trials
   
     0:30:00: Balancing the network:

              Trial  1: relative flow change = 0.017584
              Trial  2: relative flow change = 0.002428
                        maximum  flow change = 2.7714 for Link PRV-2
                        maximum  head error  = 0.0000 for Link p235

     0:30:00: Balanced after 2 trials
   
     0:35:00: Balancing the network:

              Trial  1: relative flow change = 0.017717
              Trial  2: relative flow change = 0.002255
                        maximum  flow change = 2.7460 for Link PRV-2
                        maximum  head error  = 0.0000 for Link p235

     0:35:00: Balanced after 2 trials
   
     0:40:00: Balancing the network:

              Trial  1: relative flow change = 0.018140
              Trial  2: relative flow change = 0.002929
                        maximum  flow change = 2.7573 for Link p235
                        maximum  head error  = 0.0000 for Link p829

     0:40:00: Balanced after 2 trials
   
     0:45:00: Balancing the network:

              Trial  1: relative flow change = 0.018593
              Trial  2: relative flow change = 0.003048
                        maximum  flow change = 2.7526 for Link PRV-2
                        maximum  head error  = 0.0000 for Link p235

     0:45:00: Balanced after 2 trials
   
     0:50:00: Balancing the network:

              Trial  1: relative flow change = 0.018780
              Trial  2: relative flow change = 0.002799
                        maximum  flow change = 2.7360 for Link PRV-2
                        maximum  head error  = 0.0000 for Link p717

     0:50:00: Balanced after 2 trials
   
     0:55:00: Balancing the network:

              Trial  1: relative flow change = 0.018743
              Trial  2: relative flow change = 0.002377
                        maximum  flow change = 2.6743 for Link PRV-2
                        maximum  head error  = 0.0000 for Link p235

     0:55:00: Balanced after 2 trials
   
     1:00:00: Balancing the network:

              Trial  1: relative flow change = 0.018536
              Trial  2: relative flow change = 0.003185
                        maximum  flow change = 2.5993 for Link PRV-2
                        maximum  head error  = 0.0000 for Link p82

     1:00:00: Balanced after 2 trials
   
     1:05:00: Balancing the network:

              Trial  1: relative flow change = 0.018300
              Trial  2: relative flow change = 0.002512
                        maximum  flow change = 2.4857 for Link p235
                        maximum  head error  = 0.0000 for Link p235

     1:05:00: Balanced after 2 trials
   
     1:10:00: Balancing the network:

              Trial  1: relative flow change = 0.017670
              Trial  2: relative flow change = 0.002757
                        maximum  flow change = 2.3782 for Link p235
                        maximum  head error  = 0.0000 for Link p599

     1:10:00: Balanced after 2 trials
   
     1:15:00: Balancing the network:

              Trial  1: relative flow change = 0.017407
              Trial  2: relative flow change = 0.002070
                        maximum  flow change = 2.2973 for Link p235
                        maximum  head error  = 0.0000 for Link p235

     1:15:00: Balanced after 2 trials
   
     1:20:00: Balancing the network:

              Trial  1: relative flow change = 0.017305
              Trial  2: relative flow change = 0.002293
                        maximum  flow change = 2.2420 for Link PRV-2
                        maximum  head error  = 0.0000 for Link p235

     1:20:00: Balanced after 2 trials
   
     1:25:00: Balancing the network:

              Trial  1: relative flow change = 0.017370
              Trial  2: relative flow change = 0.002607
                        maximum  flow change = 2.2104 for Link p235
                        maximum  head error  = 0.0000 for Link p570

     1:25:00: Balanced after 2 trials
   
     1:30:00: Balancing the network:

              Trial  1: relative flow change = 0.017824
              Trial  2: relative flow change = 0.003931
                        maximum  flow change = 2.2099 for Link PRV-2
                        maximum  head error  = 0.0000 for Link p235

     1:30:00: Balanced after 2 trials
   
     1:35:00: Balancing the network:

              Trial  1: relative flow change = 0.017972
              Trial  2: relative flow change = 0.002831
                        maximum  flow change = 2.2017 for Link p235
                        maximum  head error  = 0.0000 for Link p305

     1:35:00: Balanced after 2 trials
   
     1:40:00: Balancing the network:

              Trial  1: relative flow change = 0.018226
              Trial  2: relative flow change = 0.002878
                        maximum  flow change = 2.1689 for Link PRV-2
                        maximum  head error  = 0.0000 for Link p235

     1:40:00: Balanced after 2 trials
   
     1:45:00: Balancing the network:

              Trial  1: relative flow change = 0.017763
              Trial  2: relative flow change = 0.002953
                        maximum  flow change = 2.0993 for Link PRV-2
                        maximum  head error  = 0.0000 for Link p168

     1:45:00: Balanced after 2 trials
   
     1:50:00: Balancing the network:

              Trial  1: relative flow change = 0.017190
              Trial  2: relative flow change = 0.002542
                        maximum  flow change = 1.9861 for Link PRV-2
                        maximum  head error  = 0.0000 for Link p235

     1:50:00: Balanced after 2 trials
   
     1:55:00: Balancing the network:

              Trial  1: relative flow change = 0.016159
              Trial  2: relative flow change = 0.003770
                        maximum  flow change = 1.8396 for Link PRV-2
                        maximum  head error  = 0.0000 for Link p771

     1:55:00: Balanced after 2 trials
   
     2:00:00: Balancing the network:

              Trial  1: relative flow change = 0.015030
              Trial  2: relative flow change = 0.002238
                        maximum  flow change = 1.6427 for Link PRV-2
                        maximum  head error  = 0.0000 for Link p235

     2:00:00: Balanced after 2 trials
   
     2:05:00: Balancing the network:

              Trial  1: relative flow change = 0.013367
              Trial  2: relative flow change = 0.001596
                        maximum  flow change = 1.4700 for Link p235
                        maximum  head error  = 0.0000 for Link p235

     2:05:00: Balanced after 2 trials
   
     2:10:00: Balancing the network:

              Trial  1: relative flow change = 0.012199
              Trial  2: relative flow change = 0.001985
                        maximum  flow change = 1.3186 for Link PRV-2
                        maximum  head error  = 0.0000 for Link p235

     2:10:00: Balanced after 2 trials
   
     2:15:00: Balancing the network:

              Trial  1: relative flow change = 0.011251
              Trial  2: relative flow change = 0.003060
                        maximum  flow change = 1.1998 for Link p235
                        maximum  head error  = 0.0000 for Link p721

     2:15:00: Balanced after 2 trials
   
     2:20:00: Balancing the network:

              Trial  1: relative flow change = 0.010818
              Trial  2: relative flow change = 0.001539
                        maximum  flow change = 1.1293 for Link p235
                        maximum  head error  = 0.0000 for Link p235

     2:20:00: Balanced after 2 trials
   
     2:25:00: Balancing the network:

              Trial  1: relative flow change = 0.010569
              Trial  2: relative flow change = 0.001370
                        maximum  flow change = 1.1013 for Link PRV-2
                        maximum  head error  = 0.0000 for Link p235

     2:25:00: Balanced after 2 trials
   
     2:28:53: Pump PUMP_1 changed by Tank T1 control
     2:28:53: Balancing the network:

              Trial  1: relative flow change = 0.713534
              Trial  2: relative flow change = 0.114192
              Trial  3: relative flow change = 0.007045
                        maximum  flow change = 0.2469 for Link p627
                        maximum  head error  = 0.0000 for Link p143

     2:28:53: Balanced after 3 trials
     2:28:53: Tank T1 is emptying at 3.90 m
     2:28:53: Pump PUMP_1 changed from open to closed
   
     2:30:00: Balancing the network:

              Trial  1: relative flow change = 0.017004
              Trial  2: relative flow change = 0.002019
                        maximum  flow change = 1.0871 for Link p235
                        maximum  head error  = 0.0000 for Link p235

     2:30:00: Balanced after 2 trials
   
     2:35:00: Balancing the network:

              Trial  1: relative flow change = 0.017705
              Trial  2: relative flow change = 0.004977
                        maximum  flow change = 1.1111 for Link p235
                        maximum  head error  = 0.0000 for Link p806

     2:35:00: Balanced after 2 trials
   
     2:40:00: Balancing the network:

              Trial  1: relative flow change = 0.018657
              Trial  2: relative flow change = 0.003677
                        maximum  flow change = 1.1135 for Link p235
                        maximum  head error  = 0.0000 for Link p235

     2:40:00: Balanced after 2 trials
   
     2:45:00: Balancing the network:

              Trial  1: relative flow change = 0.018401
              Trial  2: relative flow change = 0.005032
                        maximum  flow change = 1.1152 for Link p235
                        maximum  head error  = 0.0000 for Link p235

     2:45:00: Balanced after 2 trials
   
     2:50:00: Balancing the network:

              Trial  1: relative flow change = 0.018312
              Trial  2: relative flow change = 0.005265
                        maximum  flow change = 1.0887 for Link PRV-2
                        maximum  head error  = 0.0000 for Link p327

     2:50:00: Balanced after 2 trials
   
     2:55:00: Balancing the network:

              Trial  1: relative flow change = 0.018680
              Trial  2: relative flow change = 0.003664
                        maximum  flow change = 1.0134 for Link PRV-2
                        maximum  head error  = 0.0000 for Link p109

     2:55:00: Balanced after 2 trials
   
     3:00:00: Balancing the network:

              Trial  1: relative flow change = 0.017049
              Trial  2: relative flow change = 0.005344
                        maximum  flow change = 0.9246 for Link p235
                        maximum  head error  = 0.0000 for Link p450

     3:00:00: Balanced after 2 trials
   
     3:05:00: Balancing the network:

              Trial  1: relative flow change = 0.014993
              Trial  2: relative flow change = 0.002426
                        maximum  flow change = 0.8160 for Link p235
                        maximum  head error  = 0.0000 for Link p729

     3:05:00: Balanced after 2 trials
   
     3:10:00: Balancing the network:

              Trial  1: relative flow change = 0.012820
              Trial  2: relative flow change = 0.001672
                        maximum  flow change = 0.6967 for Link PRV-2
                        maximum  head error  = 0.0000 for Link p235

     3:10:00: Balanced after 2 trials
   
     3:15:00: Balancing the network:

              Trial  1: relative flow change = 0.010755
              Trial  2: relative flow change = 0.003761
                        maximum  flow change = 0.5899 for Link p235
                        maximum  head error  = 0.0000 for Link p647

     3:15:00: Balanced after 2 trials
   
     3:20:00: Balancing the network:

              Trial  1: relative flow change = 0.010924
              Trial  2: relative flow change = 0.001955
                        maximum  flow change = 0.4848 for Link PRV-2
                        maximum  head error  = 0.0000 for Link p311

     3:20:00: Balanced after 2 trials
   
     3:25:00: Balancing the network:

              Trial  1: relative flow change = 0.008589
                        maximum  flow change = 0.4357 for Link p110
                        maximum  head error  = 0.0000 for Link p502

     3:25:00: Balanced after 1 trials
   
     3:30:00: Balancing the network:

              Trial  1: relative flow change = 0.009316
                        maximum  flow change = 0.4384 for Link p235
                        maximum  head error  = 0.0000 for Link p747

     3:30:00: Balanced after 1 trials
   
     3:35:00: Balancing the network:

              Trial  1: relative flow change = 0.009499
                        maximum  flow change = 0.4321 for Link p235
                        maximum  head error  = 0.0000 for Link p439

     3:35:00: Balanced after 1 trials
   
     3:40:00: Balancing the network:

              Trial  1: relative flow change = 0.011002
              Trial  2: relative flow change = 0.002544
                        maximum  flow change = 0.4596 for Link PRV-2
                        maximum  head error  = 0.0000 for Link p100

     3:40:00: Balanced after 2 trials
   
     3:45:00: Balancing the network:

              Trial  1: relative flow change = 0.010480
              Trial  2: relative flow change = 0.003363
                        maximum  flow change = 0.4635 for Link PRV-2
                        maximum  head error  = 0.0000 for Link p235

     3:45:00: Balanced after 2 trials
   
     3:50:00: Balancing the network:

              Trial  1: relative flow change = 0.009731
                        maximum  flow change = 0.4883 for Link p110
                        maximum  head error  = 0.0000 for Link p501

     3:50:00: Balanced after 1 trials
   
     3:55:00: Balancing the network:

              Trial  1: relative flow change = 0.010967
              Trial  2: relative flow change = 0.003820
                        maximum  flow change = 0.4991 for Link PRV-2
                        maximum  head error  = 0.0000 for Link p641

     3:55:00: Balanced after 2 trials
   
     4:00:00: Balancing the network:

              Trial  1: relative flow change = 0.011294
              Trial  2: relative flow change = 0.003029
                        maximum  flow change = 0.4550 for Link PRV-2
                        maximum  head error  = 0.0000 for Link p652

     4:00:00: Balanced after 2 trials
   
     4:05:00: Balancing the network:

              Trial  1: relative flow change = 0.009250
                        maximum  flow change = 0.3730 for Link p110
                        maximum  head error  = 0.0000 for Link p2

     4:05:00: Balanced after 1 trials
   
     4:10:00: Balancing the network:

              Trial  1: relative flow change = 0.008881
                        maximum  flow change = 0.3749 for Link p235
                        maximum  head error  = 0.0000 for Link p32

     4:10:00: Balanced after 1 trials
   
     4:15:00: Balancing the network:

              Trial  1: relative flow change = 0.005074
                        maximum  flow change = 0.2843 for Link p235
                        maximum  head error  = 0.0000 for Link p235

     4:15:00: Balanced after 1 trials
   
     4:20:00: Balancing the network:

              Trial  1: relative flow change = 0.001452
                        maximum  flow change = 0.1700 for Link p235
                        maximum  head error  = 0.0000 for Link p235

     4:20:00: Balanced after 1 trials
   
     4:25:00: Balancing the network:

              Trial  1: relative flow change = 0.001094
                        maximum  flow change = 0.0667 for Link PRV-2
                        maximum  head error  = 0.0000 for Link p235

     4:25:00: Balanced after 1 trials
   
     4:30:00: Balancing the network:

              Trial  1: relative flow change = 0.002341
                        maximum  flow change = 0.0944 for Link p110
                        maximum  head error  = 0.0000 for Link p110

     4:30:00: Balanced after 1 trials
   
     4:35:00: Balancing the network:

              Trial  1: relative flow change = 0.003747
                        maximum  flow change = 0.1600 for Link p110
                        maximum  head error  = 0.0000 for Link p110

     4:35:00: Balanced after 1 trials
   
     4:40:00: Balancing the network:

              Trial  1: relative flow change = 0.004952
                        maximum  flow change = 0.2212 for Link p110
                        maximum  head error  = 0.0000 for Link p110

     4:40:00: Balanced after 1 trials
   
     4:45:00: Balancing the network:

              Trial  1: relative flow change = 0.006536
                        maximum  flow change = 0.3020 for Link p110
                        maximum  head error  = 0.0000 for Link p110

     4:45:00: Balanced after 1 trials
   
     4:50:00: Balancing the network:

              Trial  1: relative flow change = 0.008912
                        maximum  flow change = 0.4200 for Link p110
                        maximum  head error  = 0.0000 for Link p110

     4:50:00: Balanced after 1 trials
   
     4:55:00: Balancing the network:

              Trial  1: relative flow change = 0.012252
              Trial  2: relative flow change = 0.001255
                        maximum  flow change = 0.5862 for Link PRV-2
                        maximum  head error  = 0.0000 for Link p235

     4:55:00: Balanced after 2 trials
   
     5:00:00: Balancing the network:

              Trial  1: relative flow change = 0.015018
              Trial  2: relative flow change = 0.001957
                        maximum  flow change = 0.7623 for Link p235
                        maximum  head error  = 0.0000 for Link p235

     5:00:00: Balanced after 2 trials
   
     5:05:00: Balancing the network:

              Trial  1: relative flow change = 0.019320
              Trial  2: relative flow change = 0.006348
                        maximum  flow change = 1.0004 for Link PRV-2
                        maximum  head error  = 0.0000 for Link p235

     5:05:00: Balanced after 2 trials
   
     5:10:00: Balancing the network:

              Trial  1: relative flow change = 0.023627
              Trial  2: relative flow change = 0.003154
                        maximum  flow change = 1.2507 for Link p235
                        maximum  head error  = 0.0000 for Link p235

     5:10:00: Balanced after 2 trials
   
     5:15:00: Balancing the network:

              Trial  1: relative flow change = 0.028147
              Trial  2: relative flow change = 0.004749
                        maximum  flow change = 1.5265 for Link p235
                        maximum  head error  = 0.0000 for Link p642

     5:15:00: Balanced after 2 trials
   
     5:20:00: Balancing the network:

              Trial  1: relative flow change = 0.033169
              Trial  2: relative flow change = 0.007374
                        maximum  flow change = 1.8309 for Link PRV-2
                        maximum  head error  = 0.0000 for Link p666

     5:20:00: Balanced after 2 trials
   
     5:25:00: Balancing the network:

              Trial  1: relative flow change = 0.038758
              Trial  2: relative flow change = 0.008010
                        maximum  flow change = 2.1734 for Link PRV-2
                        maximum  head error  = 0.0000 for Link p758

     5:25:00: Balanced after 2 trials
   
     5:30:00: Balancing the network:

              Trial  1: relative flow change = 0.043368
              Trial  2: relative flow change = 0.004715
                        maximum  flow change = 2.5975 for Link p235
                        maximum  head error  = 0.0000 for Link p904

     5:30:00: Balanced after 2 trials
   
     5:35:00: Balancing the network:

              Trial  1: relative flow change = 0.049246
              Trial  2: relative flow change = 0.010959
              Trial  3: relative flow change = 0.001245
                        maximum  flow change = 0.3236 for Link p109
                        maximum  head error  = 0.0000 for Link p103

     5:35:00: Balanced after 3 trials
   
     5:40:00: Balancing the network:

              Trial  1: relative flow change = 0.056034
              Trial  2: relative flow change = 0.009294
                        maximum  flow change = 3.7980 for Link p235
                        maximum  head error  = 0.0000 for Link p235

     5:40:00: Balanced after 2 trials
   
     5:45:00: Balancing the network:

              Trial  1: relative flow change = 0.063658
              Trial  2: relative flow change = 0.009592
                        maximum  flow change = 4.5606 for Link p235
                        maximum  head error  = 0.0000 for Link p235

     5:45:00: Balanced after 2 trials
   
     5:50:00: Balancing the network:

              Trial  1: relative flow change = 0.069162
              Trial  2: relative flow change = 0.008298
                        maximum  flow change = 5.3931 for Link PRV-2
                        maximum  head error  = 0.0000 for Link p235

     5:50:00: Balanced after 2 trials
   
     5:55:00: Balancing the network:

              Trial  1: relative flow change = 0.073312
              Trial  2: relative flow change = 0.007751
                        maximum  flow change = 6.2102 for Link p235
                        maximum  head error  = 0.0000 for Link p235

     5:55:00: Balanced after 2 trials
   
     6:00:00: Balancing the network:

              Trial  1: relative flow change = 0.074833
              Trial  2: relative flow change = 0.008067
                        maximum  flow change = 6.9069 for Link PRV-2
                        maximum  head error  = 0.0000 for Link p235

     6:00:00: Balanced after 2 trials
   
     6:05:00: Balancing the network:

              Trial  1: relative flow change = 0.073973
              Trial  2: relative flow change = 0.007713
                        maximum  flow change = 7.4098 for Link PRV-2
                        maximum  head error  = 0.0000 for Link p235

     6:05:00: Balanced after 2 trials
   
     6:10:00: Balancing the network:

              Trial  1: relative flow change = 0.070298
              Trial  2: relative flow change = 0.007299
                        maximum  flow change = 7.6227 for Link PRV-2
                        maximum  head error  = 0.0000 for Link p235

     6:10:00: Balanced after 2 trials
   
     6:15:00: Balancing the network:

              Trial  1: relative flow change = 0.064422
              Trial  2: relative flow change = 0.006496
                        maximum  flow change = 7.5384 for Link p235
                        maximum  head error  = 0.0000 for Link p235

     6:15:00: Balanced after 2 trials
   
     6:20:00: Balancing the network:

              Trial  1: relative flow change = 0.057445
              Trial  2: relative flow change = 0.006491
                        maximum  flow change = 7.1670 for Link p235
                        maximum  head error  = 0.0000 for Link p235

     6:20:00: Balanced after 2 trials
   
     6:25:00: Balancing the network:

              Trial  1: relative flow change = 0.049820
              Trial  2: relative flow change = 0.006368
                        maximum  flow change = 6.5909 for Link PRV-2
                        maximum  head error  = 0.0000 for Link p235

     6:25:00: Balanced after 2 trials
   
     6:30:00: Balancing the network:

              Trial  1: relative flow change = 0.042598
              Trial  2: relative flow change = 0.004497
                        maximum  flow change = 5.9256 for Link p235
                        maximum  head error  = 0.0000 for Link p235

     6:30:00: Balanced after 2 trials
   
     6:35:00: Balancing the network:

              Trial  1: relative flow change = 0.036243
              Trial  2: relative flow change = 0.003885
                        maximum  flow change = 5.2959 for Link PRV-2
                        maximum  head error  = 0.0000 for Link p235

     6:35:00: Balanced after 2 trials
   
     6:40:00: Balancing the network:

              Trial  1: relative flow change = 0.031608
              Trial  2: relative flow change = 0.003966
                        maximum  flow change = 4.8020 for Link PRV-2
                        maximum  head error  = 0.0000 for Link p235

     6:40:00: Balanced after 2 trials
   
     6:45:00: Balancing the network:

              Trial  1: relative flow change = 0.028714
              Trial  2: relative flow change = 0.003567
                        maximum  flow change = 4.5092 for Link p235
                        maximum  head error  = 0.0000 for Link p235

     6:45:00: Balanced after 2 trials
   
     6:50:00: Balancing the network:

              Trial  1: relative flow change = 0.027348
              Trial  2: relative flow change = 0.003548
                        maximum  flow change = 4.4363 for Link PRV-2
                        maximum  head error  = 0.0000 for Link p235

     6:50:00: Balanced after 2 trials
   
     6:55:00: Balancing the network:

              Trial  1: relative flow change = 0.027190
              Trial  2: relative flow change = 0.003740
                        maximum  flow change = 4.5404 for Link PRV-2
                        maximum  head error  = 0.0000 for Link p235

     6:55:00: Balanced after 2 trials
   
     7:00:00: Balancing the network:

              Trial  1: relative flow change = 0.027230
              Trial  2: relative flow change = 0.003534
                        maximum  flow change = 4.6961 for Link PRV-2
                        maximum  head error  = 0.0000 for Link p235

     7:00:00: Balanced after 2 trials
   
     7:05:00: Balancing the network:

              Trial  1: relative flow change = 0.027319
              Trial  2: relative flow change = 0.003480
                        maximum  flow change = 4.8580 for Link p235
                        maximum  head error  = 0.0000 for Link p235

     7:05:00: Balanced after 2 trials
   
     7:10:00: Balancing the network:

              Trial  1: relative flow change = 0.026662
              Trial  2: relative flow change = 0.002823
                        maximum  flow change = 4.8789 for Link p235
                        maximum  head error  = 0.0000 for Link p235

     7:10:00: Balanced after 2 trials
   
     7:15:00: Balancing the network:

              Trial  1: relative flow change = 0.024910
              Trial  2: relative flow change = 0.002985
                        maximum  flow change = 4.7154 for Link p235
                        maximum  head error  = 0.0000 for Link p235

     7:15:00: Balanced after 2 trials
   
     7:20:00: Balancing the network:

              Trial  1: relative flow change = 0.022377
              Trial  2: relative flow change = 0.002829
                        maximum  flow change = 4.3455 for Link p235
                        maximum  head error  = 0.0000 for Link p235

     7:20:00: Balanced after 2 trials
   
     7:25:00: Balancing the network:

              Trial  1: relative flow change = 0.018949
              Trial  2: relative flow change = 0.002832
                        maximum  flow change = 3.7953 for Link PRV-2
                        maximum  head error  = 0.0000 for Link p235

     7:25:00: Balanced after 2 trials
   
     7:30:00: Balancing the network:

              Trial  1: relative flow change = 0.015238
              Trial  2: relative flow change = 0.002432
                        maximum  flow change = 3.1346 for Link p235
                        maximum  head error  = 0.0000 for Link p312

     7:30:00: Balanced after 2 trials
   
     7:35:00: Balancing the network:

              Trial  1: relative flow change = 0.011823
              Trial  2: relative flow change = 0.001767
                        maximum  flow change = 2.4708 for Link p235
                        maximum  head error  = 0.0000 for Link p235

     7:35:00: Balanced after 2 trials
   
     7:40:00: Balancing the network:

              Trial  1: relative flow change = 0.008504
                        maximum  flow change = 1.8515 for Link p110
                        maximum  head error  = 0.0000 for Link p421

     7:40:00: Balanced after 1 trials
   
     7:45:00: Balancing the network:

              Trial  1: relative flow change = 0.007452
                        maximum  flow change = 1.8599 for Link p235
                        maximum  head error  = 0.0000 for Link p110

     7:45:00: Balanced after 1 trials
   
     7:50:00: Balancing the network:

              Trial  1: relative flow change = 0.005627
                        maximum  flow change = 1.5058 for Link p235
                        maximum  head error  = 0.0000 for Link p110

     7:50:00: Balanced after 1 trials
   
     7:55:00: Balancing the network:

              Trial  1: relative flow change = 0.004535
                        maximum  flow change = 1.1606 for Link p235
                        maximum  head error  = 0.0000 for Link p110

     7:55:00: Balanced after 1 trials
   
     8:00:00: Balancing the network:

              Trial  1: relative flow change = 0.004110
                        maximum  flow change = 0.9522 for Link p235
                        maximum  head error  = 0.0000 for Link p820

     8:00:00: Balanced after 1 trials
   
     8:05:00: Balancing the network:

              Trial  1: relative flow change = 0.004094
                        maximum  flow change = 0.8781 for Link p235
                        maximum  head error  = 0.0000 for Link p221

     8:05:00: Balanced after 1 trials
   
     8:10:00: Balancing the network:

              Trial  1: relative flow change = 0.004326
                        maximum  flow change = 0.9043 for Link p110
                        maximum  head error  = 0.0000 for Link p612

     8:10:00: Balanced after 1 trials
   
     8:15:00: Balancing the network:

              Trial  1: relative flow change = 0.004566
                        maximum  flow change = 0.9496 for Link p110
                        maximum  head error  = 0.0000 for Link p613

     8:15:00: Balanced after 1 trials
   
     8:20:00: Balancing the network:

              Trial  1: relative flow change = 0.004540
                        maximum  flow change = 0.9661 for Link p110
                        maximum  head error  = 0.0000 for Link p110

     8:20:00: Balanced after 1 trials
   
     8:25:00: Balancing the network:

              Trial  1: relative flow change = 0.004418
                        maximum  flow change = 0.9709 for Link p235
                        maximum  head error  = 0.0000 for Link p207

     8:25:00: Balanced after 1 trials
   
     8:30:00: Balancing the network:

              Trial  1: relative flow change = 0.004329
                        maximum  flow change = 0.9591 for Link p235
                        maximum  head error  = 0.0000 for Link p421

     8:30:00: Balanced after 1 trials
   
     8:35:00: Balancing the network:

              Trial  1: relative flow change = 0.004100
                        maximum  flow change = 0.9330 for Link p235
                        maximum  head error  = 0.0000 for Link p738

     8:35:00: Balanced after 1 trials
   
     8:40:00: Balancing the network:

              Trial  1: relative flow change = 0.003712
                        maximum  flow change = 0.8788 for Link p235
                        maximum  head error  = 0.0000 for Link p871

     8:40:00: Balanced after 1 trials
   
     8:45:00: Balancing the network:

              Trial  1: relative flow change = 0.003616
                        maximum  flow change = 0.8098 for Link p235
                        maximum  head error  = 0.0000 for Link p872

     8:45:00: Balanced after 1 trials
   
     8:50:00: Balancing the network:

              Trial  1: relative flow change = 0.003201
                        maximum  flow change = 0.7421 for Link p235
                        maximum  head error  = 0.0000 for Link p797

     8:50:00: Balanced after 1 trials
   
     8:55:00: Balancing the network:

              Trial  1: relative flow change = 0.002646
                        maximum  flow change = 0.6632 for Link p235
                        maximum  head error  = 0.0000 for Link p110

     8:55:00: Balanced after 1 trials
   
     9:00:00: Balancing the network:

              Trial  1: relative flow change = 0.002284
                        maximum  flow change = 0.5668 for Link p235
                        maximum  head error  = 0.0000 for Link p110

     9:00:00: Balanced after 1 trials
   
     9:05:00: Balancing the network:

              Trial  1: relative flow change = 0.001960
                        maximum  flow change = 0.5001 for Link p235
                        maximum  head error  = 0.0000 for Link p110

     9:05:00: Balanced after 1 trials
   
     9:10:00: Balancing the network:

              Trial  1: relative flow change = 0.001719
                        maximum  flow change = 0.4278 for Link p235
                        maximum  head error  = 0.0000 for Link p110

     9:10:00: Balanced after 1 trials
   
     9:15:00: Balancing the network:

              Trial  1: relative flow change = 0.001700
                        maximum  flow change = 0.3773 for Link p235
                        maximum  head error  = 0.0000 for Link p110

     9:15:00: Balanced after 1 trials
   
     9:20:00: Balancing the network:

              Trial  1: relative flow change = 0.001664
                        maximum  flow change = 0.3745 for Link p235
                        maximum  head error  = 0.0000 for Link p110

     9:20:00: Balanced after 1 trials
   
     9:25:00: Balancing the network:

              Trial  1: relative flow change = 0.001786
                        maximum  flow change = 0.3900 for Link p110
                        maximum  head error  = 0.0000 for Link p110

     9:25:00: Balanced after 1 trials
   
     9:30:00: Balancing the network:

              Trial  1: relative flow change = 0.001829
                        maximum  flow change = 0.3978 for Link p110
                        maximum  head error  = 0.0000 for Link p110

     9:30:00: Balanced after 1 trials
   
     9:35:00: Balancing the network:

              Trial  1: relative flow change = 0.001807
                        maximum  flow change = 0.4001 for Link p235
                        maximum  head error  = 0.0000 for Link p389

     9:35:00: Balanced after 1 trials
   
     9:40:00: Balancing the network:

              Trial  1: relative flow change = 0.001635
                        maximum  flow change = 0.3942 for Link p235
                        maximum  head error  = 0.0000 for Link p390

     9:40:00: Balanced after 1 trials
   
     9:45:00: Balancing the network:

              Trial  1: relative flow change = 0.001206
                        maximum  flow change = 0.3486 for Link p235
                        maximum  head error  = 0.0000 for Link p110

     9:45:00: Balanced after 1 trials
   
     9:50:00: Balancing the network:

              Trial  1: relative flow change = 0.000595
                        maximum  flow change = 0.2557 for Link p235
                        maximum  head error  = 0.0000 for Link p235

     9:50:00: Balanced after 1 trials
   
     9:55:00: Balancing the network:

              Trial  1: relative flow change = 0.000364
                        maximum  flow change = 0.1284 for Link PRV-2
                        maximum  head error  = 0.0000 for Link p235

     9:55:00: Balanced after 1 trials
   
    10:00:00: Balancing the network:

              Trial  1: relative flow change = 0.000923
                        maximum  flow change = 0.1653 for Link p110
                        maximum  head error  = 0.0000 for Link p110

    10:00:00: Balanced after 1 trials
   
    10:05:00: Balancing the network:

              Trial  1: relative flow change = 0.001455
                        maximum  flow change = 0.2745 for Link p110
                        maximum  head error  = 0.0000 for Link p110

    10:05:00: Balanced after 1 trials
   
    10:10:00: Balancing the network:

              Trial  1: relative flow change = 0.001695
                        maximum  flow change = 0.3182 for Link p110
                        maximum  head error  = 0.0000 for Link p110

    10:10:00: Balanced after 1 trials
   
    10:15:00: Balancing the network:

              Trial  1: relative flow change = 0.001674
                        maximum  flow change = 0.3209 for Link p235
                        maximum  head error  = 0.0000 for Link p110

    10:15:00: Balanced after 1 trials
   
    10:20:00: Balancing the network:

              Trial  1: relative flow change = 0.001343
                        maximum  flow change = 0.3061 for Link p235
                        maximum  head error  = 0.0000 for Link p110

    10:20:00: Balanced after 1 trials
   
    10:25:00: Balancing the network:

              Trial  1: relative flow change = 0.000858
                        maximum  flow change = 0.2322 for Link p235
                        maximum  head error  = 0.0000 for Link p235

    10:25:00: Balanced after 1 trials
   
    10:30:00: Balancing the network:

              Trial  1: relative flow change = 0.000335
                        maximum  flow change = 0.1227 for Link p235
                        maximum  head error  = 0.0000 for Link p235

    10:30:00: Balanced after 1 trials
   
    10:35:00: Balancing the network:

              Trial  1: relative flow change = 0.000338
                        maximum  flow change = 0.0723 for Link p110
                        maximum  head error  = 0.0000 for Link p423

    10:35:00: Balanced after 1 trials
   
    10:40:00: Balancing the network:

              Trial  1: relative flow change = 0.000568
                        maximum  flow change = 0.1230 for Link p110
                        maximum  head error  = 0.0000 for Link p110

    10:40:00: Balanced after 1 trials
   
    10:45:00: Balancing the network:

              Trial  1: relative flow change = 0.000440
                        maximum  flow change = 0.1234 for Link PRV-2
                        maximum  head error  = 0.0000 for Link p110

    10:45:00: Balanced after 1 trials
   
    10:50:00: Balancing the network:

              Trial  1: relative flow change = 0.000217
                        maximum  flow change = 0.0957 for Link PRV-2
                        maximum  head error  = 0.0000 for Link p235

    10:50:00: Balanced after 1 trials
   
    10:55:00: Balancing the network:

              Trial  1: relative flow change = 0.000353
                        maximum  flow change = 0.0452 for Link p110
                        maximum  head error  = 0.0000 for Link p110

    10:55:00: Balanced after 1 trials
   
    11:00:00: Balancing the network:

              Trial  1: relative flow change = 0.000736
                        maximum  flow change = 0.1334 for Link p110
                        maximum  head error  = 0.0000 for Link p110

    11:00:00: Balanced after 1 trials
   
    11:05:00: Balancing the network:

              Trial  1: relative flow change = 0.000974
                        maximum  flow change = 0.1838 for Link p110
                        maximum  head error  = 0.0000 for Link p110

    11:05:00: Balanced after 1 trials
   
    11:10:00: Balancing the network:

              Trial  1: relative flow change = 0.001076
                        maximum  flow change = 0.2054 for Link p110
                        maximum  head error  = 0.0000 for Link p110

    11:10:00: Balanced after 1 trials
   
    11:15:00: Balancing the network:

              Trial  1: relative flow change = 0.000990
                        maximum  flow change = 0.2069 for Link p235
                        maximum  head error  = 0.0000 for Link p110

    11:15:00: Balanced after 1 trials
   
    11:20:00: Balancing the network:

              Trial  1: relative flow change = 0.000720
                        maximum  flow change = 0.1844 for Link p235
                        maximum  head error  = 0.0000 for Link p235

    11:20:00: Balanced after 1 trials
   
    11:25:00: Balancing the network:

              Trial  1: relative flow change = 0.000483
                        maximum  flow change = 0.1255 for Link p235
                        maximum  head error  = 0.0000 for Link p235

    11:25:00: Balanced after 1 trials
   
    11:30:00: Balancing the network:

              Trial  1: relative flow change = 0.000275
                        maximum  flow change = 0.0778 for Link p235
                        maximum  head error  = 0.0000 for Link p235

    11:30:00: Balanced after 1 trials
   
    11:35:00: Balancing the network:

              Trial  1: relative flow change = 0.000268
                        maximum  flow change = 0.0346 for Link p235
                        maximum  head error  = 0.0000 for Link p110

    11:35:00: Balanced after 1 trials
   
    11:40:00: Balancing the network:

              Trial  1: relative flow change = 0.000338
                        maximum  flow change = 0.0559 for Link p110
                        maximum  head error  = 0.0000 for Link p110

    11:40:00: Balanced after 1 trials
   
    11:45:00: Balancing the network:

              Trial  1: relative flow change = 0.000694
                        maximum  flow change = 0.1327 for Link p110
                        maximum  head error  = 0.0000 for Link p110

    11:45:00: Balanced after 1 trials
   
    11:50:00: Balancing the network:

              Trial  1: relative flow change = 0.001078
                        maximum  flow change = 0.2170 for Link p110
                        maximum  head error  = 0.0000 for Link p110

    11:50:00: Balanced after 1 trials
   
    11:55:00: Balancing the network:

              Trial  1: relative flow change = 0.001477
                        maximum  flow change = 0.3041 for Link p110
                        maximum  head error  = 0.0000 for Link p110

    11:55:00: Balanced after 1 trials
   
    12:00:00: Balancing the network:

              Trial  1: relative flow change = 0.001851
                        maximum  flow change = 0.3821 for Link p110
                        maximum  head error  = 0.0000 for Link p110

    12:00:00: Balanced after 1 trials
   
    12:05:00: Balancing the network:

              Trial  1: relative flow change = 0.002093
                        maximum  flow change = 0.4315 for Link p110
                        maximum  head error  = 0.0000 for Link p215

    12:05:00: Balanced after 1 trials
   
    12:10:00: Balancing the network:

              Trial  1: relative flow change = 0.002272
                        maximum  flow change = 0.4561 for Link p110
                        maximum  head error  = 0.0000 for Link p110

    12:10:00: Balanced after 1 trials
   
    12:15:00: Balancing the network:

              Trial  1: relative flow change = 0.002159
                        maximum  flow change = 0.4591 for Link p235
                        maximum  head error  = 0.0000 for Link p110

    12:15:00: Balanced after 1 trials
   
    12:20:00: Balancing the network:

              Trial  1: relative flow change = 0.001951
                        maximum  flow change = 0.4481 for Link p235
                        maximum  head error  = 0.0000 for Link p110

    12:20:00: Balanced after 1 trials
   
    12:25:00: Balancing the network:

              Trial  1: relative flow change = 0.001680
                        maximum  flow change = 0.4028 for Link p235
                        maximum  head error  = 0.0000 for Link p110

    12:25:00: Balanced after 1 trials
   
    12:30:00: Balancing the network:

              Trial  1: relative flow change = 0.001422
                        maximum  flow change = 0.3507 for Link p235
                        maximum  head error  = 0.0000 for Link p110

    12:30:00: Balanced after 1 trials
   
    12:35:00: Balancing the network:

              Trial  1: relative flow change = 0.001135
                        maximum  flow change = 0.2941 for Link p235
                        maximum  head error  = 0.0000 for Link p110

    12:35:00: Balanced after 1 trials
   
    12:40:00: Balancing the network:

              Trial  1: relative flow change = 0.000919
                        maximum  flow change = 0.2354 for Link p235
                        maximum  head error  = 0.0000 for Link p110

    12:40:00: Balanced after 1 trials
   
    12:45:00: Balancing the network:

              Trial  1: relative flow change = 0.000764
                        maximum  flow change = 0.1904 for Link p235
                        maximum  head error  = 0.0000 for Link p110

    12:45:00: Balanced after 1 trials
   
    12:50:00: Balancing the network:

              Trial  1: relative flow change = 0.000716
                        maximum  flow change = 0.1574 for Link p235
                        maximum  head error  = 0.0000 for Link p110

    12:50:00: Balanced after 1 trials
   
    12:55:00: Balancing the network:

              Trial  1: relative flow change = 0.000759
                        maximum  flow change = 0.1514 for Link p110
                        maximum  head error  = 0.0000 for Link p110

    12:55:00: Balanced after 1 trials
   
    13:00:00: Balancing the network:

              Trial  1: relative flow change = 0.000935
                        maximum  flow change = 0.1870 for Link p110
                        maximum  head error  = 0.0000 for Link p110

    13:00:00: Balanced after 1 trials
   
    13:05:00: Balancing the network:

              Trial  1: relative flow change = 0.001107
                        maximum  flow change = 0.2222 for Link p110
                        maximum  head error  = 0.0000 for Link p110

    13:05:00: Balanced after 1 trials
   
    13:10:00: Balancing the network:

              Trial  1: relative flow change = 0.001456
                        maximum  flow change = 0.2950 for Link p110
                        maximum  head error  = 0.0000 for Link p110

    13:10:00: Balanced after 1 trials
   
    13:15:00: Balancing the network:

              Trial  1: relative flow change = 0.001838
                        maximum  flow change = 0.3729 for Link p110
                        maximum  head error  = 0.0000 for Link p110

    13:15:00: Balanced after 1 trials
   
    13:20:00: Balancing the network:

              Trial  1: relative flow change = 0.002206
                        maximum  flow change = 0.4509 for Link p110
                        maximum  head error  = 0.0000 for Link p110

    13:20:00: Balanced after 1 trials
   
    13:25:00: Balancing the network:

              Trial  1: relative flow change = 0.002545
                        maximum  flow change = 0.5173 for Link p110
                        maximum  head error  = 0.0000 for Link p110

    13:25:00: Balanced after 1 trials
   
    13:30:00: Balancing the network:

              Trial  1: relative flow change = 0.002789
                        maximum  flow change = 0.5665 for Link p110
                        maximum  head error  = 0.0000 for Link p110

    13:30:00: Balanced after 1 trials
   
    13:35:00: Balancing the network:

              Trial  1: relative flow change = 0.003056
                        maximum  flow change = 0.6170 for Link p110
                        maximum  head error  = 0.0000 for Link p15

    13:35:00: Balanced after 1 trials
   
    13:40:00: Balancing the network:

              Trial  1: relative flow change = 0.003230
                        maximum  flow change = 0.6343 for Link p110
                        maximum  head error  = 0.0000 for Link p110

    13:40:00: Balanced after 1 trials
   
    13:45:00: Balancing the network:

              Trial  1: relative flow change = 0.003200
                        maximum  flow change = 0.6386 for Link p235
                        maximum  head error  = 0.0000 for Link p110

    13:45:00: Balanced after 1 trials
   
    13:50:00: Balancing the network:

              Trial  1: relative flow change = 0.003244
                        maximum  flow change = 0.6387 for Link p235
                        maximum  head error  = 0.0000 for Link p110

    13:50:00: Balanced after 1 trials
   
    13:55:00: Balancing the network:

              Trial  1: relative flow change = 0.003222
                        maximum  flow change = 0.6406 for Link p235
                        maximum  head error  = 0.0000 for Link p110

    13:55:00: Balanced after 1 trials
   
    14:00:00: Balancing the network:

              Trial  1: relative flow change = 0.003200
                        maximum  flow change = 0.6269 for Link p235
                        maximum  head error  = 0.0000 for Link p110

    14:00:00: Balanced after 1 trials
   
    14:05:00: Balancing the network:

              Trial  1: relative flow change = 0.003291
                        maximum  flow change = 0.6226 for Link p110
                        maximum  head error  = 0.0000 for Link p110

    14:05:00: Balanced after 1 trials
   
    14:10:00: Balancing the network:

              Trial  1: relative flow change = 0.003305
                        maximum  flow change = 0.6273 for Link p235
                        maximum  head error  = 0.0000 for Link p308

    14:10:00: Balanced after 1 trials
   
    14:15:00: Balancing the network:

              Trial  1: relative flow change = 0.003529
                        maximum  flow change = 0.6413 for Link p110
                        maximum  head error  = 0.0000 for Link p79

    14:15:00: Balanced after 1 trials
   
    14:20:00: Balancing the network:

              Trial  1: relative flow change = 0.003734
                        maximum  flow change = 0.6795 for Link p110
                        maximum  head error  = 0.0000 for Link p815

    14:20:00: Balanced after 1 trials
   
    14:25:00: Balancing the network:

              Trial  1: relative flow change = 0.003961
                        maximum  flow change = 0.7286 for Link p110
                        maximum  head error  = 0.0000 for Link p422

    14:25:00: Balanced after 1 trials
   
    14:30:00: Balancing the network:

              Trial  1: relative flow change = 0.004333
                        maximum  flow change = 0.8040 for Link p110
                        maximum  head error  = 0.0000 for Link p309

    14:30:00: Balanced after 1 trials
   
    14:35:00: Balancing the network:

              Trial  1: relative flow change = 0.004879
                        maximum  flow change = 0.8943 for Link p110
                        maximum  head error  = 0.0000 for Link p271

    14:35:00: Balanced after 1 trials
   
    14:40:00: Balancing the network:

              Trial  1: relative flow change = 0.005501
                        maximum  flow change = 1.0062 for Link p110
                        maximum  head error  = 0.0000 for Link p389

    14:40:00: Balanced after 1 trials
   
    14:45:00: Balancing the network:

              Trial  1: relative flow change = 0.006188
                        maximum  flow change = 1.1472 for Link p110
                        maximum  head error  = 0.0000 for Link p110

    14:45:00: Balanced after 1 trials
   
    14:50:00: Balancing the network:

              Trial  1: relative flow change = 0.006894
                        maximum  flow change = 1.2728 for Link p110
                        maximum  head error  = 0.0000 for Link p585

    14:50:00: Balanced after 1 trials
   
    14:55:00: Balancing the network:

              Trial  1: relative flow change = 0.007654
                        maximum  flow change = 1.3766 for Link p110
                        maximum  head error  = 0.0000 for Link p110

    14:55:00: Balanced after 1 trials
   
    15:00:00: Balancing the network:

              Trial  1: relative flow change = 0.008103
                        maximum  flow change = 1.4772 for Link p110
                        maximum  head error  = 0.0000 for Link p613

    15:00:00: Balanced after 1 trials
   
    15:05:00: Balancing the network:

              Trial  1: relative flow change = 0.008448
                        maximum  flow change = 1.5202 for Link p110
                        maximum  head error  = 0.0000 for Link p612

    15:05:00: Balanced after 1 trials
   
    15:10:00: Balancing the network:

              Trial  1: relative flow change = 0.008334
                        maximum  flow change = 1.5308 for Link p235
                        maximum  head error  = 0.0000 for Link p312

    15:10:00: Balanced after 1 trials
   
    15:15:00: Balancing the network:

              Trial  1: relative flow change = 0.007986
                        maximum  flow change = 1.4967 for Link p235
                        maximum  head error  = 0.0000 for Link p313

    15:15:00: Balanced after 1 trials
   
    15:20:00: Balancing the network:

              Trial  1: relative flow change = 0.007669
                        maximum  flow change = 1.4137 for Link p235
                        maximum  head error  = 0.0000 for Link p871

    15:20:00: Balanced after 1 trials
   
    15:25:00: Balancing the network:

              Trial  1: relative flow change = 0.006529
                        maximum  flow change = 1.3062 for Link p235
                        maximum  head error  = 0.0000 for Link p110

    15:25:00: Balanced after 1 trials
   
    15:30:00: Balancing the network:

              Trial  1: relative flow change = 0.005419
                        maximum  flow change = 1.1290 for Link p235
                        maximum  head error  = 0.0000 for Link p110

    15:30:00: Balanced after 1 trials
   
    15:35:00: Balancing the network:

              Trial  1: relative flow change = 0.004396
                        maximum  flow change = 0.9662 for Link p235
                        maximum  head error  = 0.0000 for Link p110

    15:35:00: Balanced after 1 trials
   
    15:40:00: Balancing the network:

              Trial  1: relative flow change = 0.003526
                        maximum  flow change = 0.7828 for Link p235
                        maximum  head error  = 0.0000 for Link p601

    15:40:00: Balanced after 1 trials
   
    15:45:00: Balancing the network:

              Trial  1: relative flow change = 0.002774
                        maximum  flow change = 0.6327 for Link p235
                        maximum  head error  = 0.0000 for Link p188

    15:45:00: Balanced after 1 trials
   
    15:50:00: Balancing the network:

              Trial  1: relative flow change = 0.002205
                        maximum  flow change = 0.4932 for Link p235
                        maximum  head error  = 0.0000 for Link p110

    15:50:00: Balanced after 1 trials
   
    15:55:00: Balancing the network:

              Trial  1: relative flow change = 0.001470
                        maximum  flow change = 0.3694 for Link p235
                        maximum  head error  = 0.0000 for Link p235

    15:55:00: Balanced after 1 trials
   
    16:00:00: Balancing the network:

              Trial  1: relative flow change = 0.000921
                        maximum  flow change = 0.2638 for Link p235
                        maximum  head error  = 0.0000 for Link p235

    16:00:00: Balanced after 1 trials
   
    16:05:00: Balancing the network:

              Trial  1: relative flow change = 0.000303
                        maximum  flow change = 0.1678 for Link PRV-2
                        maximum  head error  = 0.0000 for Link p235

    16:05:00: Balanced after 1 trials
   
    16:10:00: Balancing the network:

              Trial  1: relative flow change = 0.000463
                        maximum  flow change = 0.0627 for Link p110
                        maximum  head error  = 0.0000 for Link p110

    16:10:00: Balanced after 1 trials
   
    16:15:00: Balancing the network:

              Trial  1: relative flow change = 0.000947
                        maximum  flow change = 0.1552 for Link p110
                        maximum  head error  = 0.0000 for Link p110

    16:15:00: Balanced after 1 trials
   
    16:20:00: Balancing the network:

              Trial  1: relative flow change = 0.001484
                        maximum  flow change = 0.2506 for Link p110
                        maximum  head error  = 0.0000 for Link p110

    16:20:00: Balanced after 1 trials
   
    16:25:00: Balancing the network:

              Trial  1: relative flow change = 0.001945
                        maximum  flow change = 0.3286 for Link p110
                        maximum  head error  = 0.0000 for Link p110

    16:25:00: Balanced after 1 trials
   
    16:30:00: Balancing the network:

              Trial  1: relative flow change = 0.002207
                        maximum  flow change = 0.3708 for Link p110
                        maximum  head error  = 0.0000 for Link p110

    16:30:00: Balanced after 1 trials
   
    16:35:00: Balancing the network:

              Trial  1: relative flow change = 0.002237
                        maximum  flow change = 0.3737 for Link p235
                        maximum  head error  = 0.0000 for Link p110

    16:35:00: Balanced after 1 trials
   
    16:40:00: Balancing the network:

              Trial  1: relative flow change = 0.002259
                        maximum  flow change = 0.3754 for Link p110
                        maximum  head error  = 0.0000 for Link p110

    16:40:00: Balanced after 1 trials
   
    16:45:00: Balancing the network:

              Trial  1: relative flow change = 0.002279
                        maximum  flow change = 0.3784 for Link p235
                        maximum  head error  = 0.0000 for Link p110

    16:45:00: Balanced after 1 trials
   
    16:50:00: Balancing the network:

              Trial  1: relative flow change = 0.002232
                        maximum  flow change = 0.3804 for Link p235
                        maximum  head error  = 0.0000 for Link p601

    16:50:00: Balanced after 1 trials
   
    16:55:00: Balancing the network:

              Trial  1: relative flow change = 0.002230
                        maximum  flow change = 0.3720 for Link p235
                        maximum  head error  = 0.0000 for Link p110

    16:55:00: Balanced after 1 trials
   
    17:00:00: Balancing the network:

              Trial  1: relative flow change = 0.002295
                        maximum  flow change = 0.3889 for Link p110
                        maximum  head error  = 0.0000 for Link p110

    17:00:00: Balanced after 1 trials
   
    17:05:00: Balancing the network:

              Trial  1: relative flow change = 0.002434
                        maximum  flow change = 0.4220 for Link p110
                        maximum  head error  = 0.0000 for Link p110

    17:05:00: Balanced after 1 trials
   
    17:10:00: Balancing the network:

              Trial  1: relative flow change = 0.002542
                        maximum  flow change = 0.4428 for Link p110
                        maximum  head error  = 0.0000 for Link p110

    17:10:00: Balanced after 1 trials
   
    17:15:00: Balancing the network:

              Trial  1: relative flow change = 0.002580
                        maximum  flow change = 0.4502 for Link p110
                        maximum  head error  = 0.0000 for Link p110

    17:15:00: Balanced after 1 trials
   
    17:20:00: Balancing the network:

              Trial  1: relative flow change = 0.002540
                        maximum  flow change = 0.4534 for Link p235
                        maximum  head error  = 0.0000 for Link p110

    17:20:00: Balanced after 1 trials
   
    17:23:55: Pump PUMP_1 changed by Tank T1 control
    17:23:55: Balancing the network:

              Trial  1: relative flow change = 0.999989
              PRV PRV-1 switched from closed to active
              Trial  2: relative flow change = 1.077882
              Pump PUMP_1 switched from open to closed
              Trial  3: relative flow change = 1.603621
              Trial  4: relative flow change = 1.209455
              PRV PRV-1 switched from active to closed
              Pump PUMP_1 switched from closed to open
              Trial  5: relative flow change = 1.271757
              PRV PRV-1 switched from closed to active
              PRV PRV-3 switched from active to open
              Trial  6: relative flow change = 1.043239
              PRV PRV-3 switched from open to active
              Trial  7: relative flow change = 1.038254
              Trial  8: relative flow change = 0.976681
              Trial  9: relative flow change = 0.959486
              Trial 10: relative flow change = 0.958945
              Trial 11: relative flow change = 0.962406
              Trial 12: relative flow change = 0.963075
              Trial 13: relative flow change = 0.960770
              Trial 14: relative flow change = 0.952099
              Trial 15: relative flow change = 0.931130
              Trial 16: relative flow change = 0.888892
              Trial 17: relative flow change = 0.812792
              Trial 18: relative flow change = 0.690911
              Trial 19: relative flow change = 0.522572
              Trial 20: relative flow change = 0.328496
              Trial 21: relative flow change = 0.146809
              Trial 22: relative flow change = 0.034512
              Trial 23: relative flow change = 0.002770
                        maximum  flow change = 2.3089 for Link p235
                        maximum  head error  = 0.0015 for Link PUMP_1

    17:23:55: Balanced after 23 trials
    17:23:55: Reservoir R1 is emptying
    17:23:55: Tank T1 is filling at 2.40 m
    17:23:55: Pump PUMP_1 changed from closed to open
    17:23:55: PRV PRV-1 changed from closed to active
   
    17:25:00: Balancing the network:

              Trial  1: relative flow change = 0.001768
                        maximum  flow change = 0.2001 for Link p110
                        maximum  head error  = 0.0000 for Link PUMP_1

    17:25:00: Balanced after 1 trials
   
    17:30:00: Balancing the network:

              Trial  1: relative flow change = 0.001615
                        maximum  flow change = 0.2183 for Link p227
                        maximum  head error  = 0.0000 for Link PUMP_1

    17:30:00: Balanced after 1 trials
   
    17:35:00: Balancing the network:

              Trial  1: relative flow change = 0.001333
                        maximum  flow change = 0.2042 for Link p227
                        maximum  head error  = 0.0000 for Link PUMP_1

    17:35:00: Balanced after 1 trials
   
    17:40:00: Balancing the network:

              Trial  1: relative flow change = 0.001182
                        maximum  flow change = 0.1819 for Link PRV-1
                        maximum  head error  = 0.0000 for Link PUMP_1

    17:40:00: Balanced after 1 trials
   
    17:45:00: Balancing the network:

              Trial  1: relative flow change = 0.001116
                        maximum  flow change = 0.1610 for Link p227
                        maximum  head error  = 0.0000 for Link PUMP_1

    17:45:00: Balanced after 1 trials
   
    17:50:00: Balancing the network:

              Trial  1: relative flow change = 0.001126
                        maximum  flow change = 0.1520 for Link PRV-1
                        maximum  head error  = 0.0000 for Link PUMP_1

    17:50:00: Balanced after 1 trials
   
    17:55:00: Balancing the network:

              Trial  1: relative flow change = 0.001315
                        maximum  flow change = 0.1547 for Link p227
                        maximum  head error  = 0.0000 for Link PUMP_1

    17:55:00: Balanced after 1 trials
   
    18:00:00: Balancing the network:

              Trial  1: relative flow change = 0.001421
                        maximum  flow change = 0.1673 for Link p227
                        maximum  head error  = 0.0000 for Link PUMP_1

    18:00:00: Balanced after 1 trials
   
    18:05:00: Balancing the network:

              Trial  1: relative flow change = 0.001417
                        maximum  flow change = 0.1819 for Link PRV-1
                        maximum  head error  = 0.0000 for Link PUMP_1

    18:05:00: Balanced after 1 trials
   
    18:10:00: Balancing the network:

              Trial  1: relative flow change = 0.001533
                        maximum  flow change = 0.1977 for Link p110
                        maximum  head error  = 0.0000 for Link PUMP_1

    18:10:00: Balanced after 1 trials
   
    18:15:00: Balancing the network:

              Trial  1: relative flow change = 0.001625
                        maximum  flow change = 0.2147 for Link p227
                        maximum  head error  = 0.0000 for Link PUMP_1

    18:15:00: Balanced after 1 trials
   
    18:20:00: Balancing the network:

              Trial  1: relative flow change = 0.001664
                        maximum  flow change = 0.2263 for Link PRV-1
                        maximum  head error  = 0.0000 for Link PUMP_1

    18:20:00: Balanced after 1 trials
   
    18:25:00: Balancing the network:

              Trial  1: relative flow change = 0.001713
                        maximum  flow change = 0.2320 for Link p227
                        maximum  head error  = 0.0000 for Link PUMP_1

    18:25:00: Balanced after 1 trials
   
    18:30:00: Balancing the network:

              Trial  1: relative flow change = 0.001772
                        maximum  flow change = 0.2392 for Link PRV-1
                        maximum  head error  = 0.0000 for Link PUMP_1

    18:30:00: Balanced after 1 trials
   
    18:35:00: Balancing the network:

              Trial  1: relative flow change = 0.001779
                        maximum  flow change = 0.2472 for Link PRV-1
                        maximum  head error  = 0.0000 for Link PUMP_1

    18:35:00: Balanced after 1 trials
   
    18:40:00: Balancing the network:

              Trial  1: relative flow change = 0.001765
                        maximum  flow change = 0.2469 for Link PRV-1
                        maximum  head error  = 0.0000 for Link PUMP_1

    18:40:00: Balanced after 1 trials
   
    18:45:00: Balancing the network:

              Trial  1: relative flow change = 0.001748
                        maximum  flow change = 0.2455 for Link p227
                        maximum  head error  = 0.0000 for Link PUMP_1

    18:45:00: Balanced after 1 trials
   
    18:50:00: Balancing the network:

              Trial  1: relative flow change = 0.001500
                        maximum  flow change = 0.2280 for Link PRV-1
                        maximum  head error  = 0.0000 for Link PUMP_1

    18:50:00: Balanced after 1 trials
   
    18:55:00: Balancing the network:

              Trial  1: relative flow change = 0.001248
                        maximum  flow change = 0.2064 for Link PRV-1
                        maximum  head error  = 0.0000 for Link PUMP_1

    18:55:00: Balanced after 1 trials
   
    19:00:00: Balancing the network:

              Trial  1: relative flow change = 0.000842
                        maximum  flow change = 0.1693 for Link p227
                        maximum  head error  = 0.0000 for Link PUMP_1

    19:00:00: Balanced after 1 trials
   
    19:05:00: Balancing the network:

              Trial  1: relative flow change = 0.000516
                        maximum  flow change = 0.1117 for Link PRV-1
                        maximum  head error  = 0.0000 for Link PUMP_1

    19:05:00: Balanced after 1 trials
   
    19:10:00: Balancing the network:

              Trial  1: relative flow change = 0.000242
                        maximum  flow change = 0.0666 for Link PRV-1
                        maximum  head error  = 0.0000 for Link PUMP_1

    19:10:00: Balanced after 1 trials
   
    19:15:00: Balancing the network:

              Trial  1: relative flow change = 0.000102
                        maximum  flow change = 0.0290 for Link p227
                        maximum  head error  = 0.0000 for Link PUMP_1

    19:15:00: Balanced after 1 trials
   
    19:20:00: Balancing the network:

              Trial  1: relative flow change = 0.000159
                        maximum  flow change = 0.0180 for Link p110
                        maximum  head error  = 0.0000 for Link PUMP_1

    19:20:00: Balanced after 1 trials
   
    19:25:00: Balancing the network:

              Trial  1: relative flow change = 0.000438
                        maximum  flow change = 0.0571 for Link p110
                        maximum  head error  = 0.0000 for Link PUMP_1

    19:25:00: Balanced after 1 trials
   
    19:30:00: Balancing the network:

              Trial  1: relative flow change = 0.000823
                        maximum  flow change = 0.1093 for Link p110
                        maximum  head error  = 0.0000 for Link PUMP_1

    19:30:00: Balanced after 1 trials
   
    19:35:00: Balancing the network:

              Trial  1: relative flow change = 0.001244
                        maximum  flow change = 0.1635 for Link p110
                        maximum  head error  = 0.0000 for Link PUMP_1

    19:35:00: Balanced after 1 trials
   
    19:40:00: Balancing the network:

              Trial  1: relative flow change = 0.001483
                        maximum  flow change = 0.1927 for Link p110
                        maximum  head error  = 0.0000 for Link PUMP_1

    19:40:00: Balanced after 1 trials
   
    19:45:00: Balancing the network:

              Trial  1: relative flow change = 0.001479
                        maximum  flow change = 0.2123 for Link PRV-1
                        maximum  head error  = 0.0000 for Link PUMP_1

    19:45:00: Balanced after 1 trials
   
    19:50:00: Balancing the network:

              Trial  1: relative flow change = 0.001147
                        maximum  flow change = 0.2088 for Link PRV-1
                        maximum  head error  = 0.0000 for Link PUMP_1

    19:50:00: Balanced after 1 trials
   
    19:55:00: Balancing the network:

              Trial  1: relative flow change = 0.000497
                        maximum  flow change = 0.1575 for Link p227
                        maximum  head error  = 0.0000 for Link PUMP_1

    19:55:00: Balanced after 1 trials
   
    20:00:00: Balancing the network:

              Trial  1: relative flow change = 0.000453
                        maximum  flow change = 0.0633 for Link p110
                        maximum  head error  = 0.0000 for Link PUMP_1

    20:00:00: Balanced after 1 trials
   
    20:05:00: Balancing the network:

              Trial  1: relative flow change = 0.001158
                        maximum  flow change = 0.1646 for Link p110
                        maximum  head error  = 0.0000 for Link PUMP_1

    20:05:00: Balanced after 1 trials
   
    20:10:00: Balancing the network:

              Trial  1: relative flow change = 0.001694
                        maximum  flow change = 0.2318 for Link p110
                        maximum  head error  = 0.0000 for Link PUMP_1

    20:10:00: Balanced after 1 trials
   
    20:15:00: Balancing the network:

              Trial  1: relative flow change = 0.001831
                        maximum  flow change = 0.2449 for Link p110
                        maximum  head error  = 0.0000 for Link PUMP_1

    20:15:00: Balanced after 1 trials
   
    20:20:00: Balancing the network:

              Trial  1: relative flow change = 0.001369
                        maximum  flow change = 0.2510 for Link p227
                        maximum  head error  = 0.0000 for Link PUMP_1

    20:20:00: Balanced after 1 trials
   
    20:25:00: Balancing the network:

              Trial  1: relative flow change = 0.000422
                        maximum  flow change = 0.1791 for Link PRV-1
                        maximum  head error  = 0.0000 for Link PUMP_1

    20:25:00: Balanced after 1 trials
   
    20:30:00: Balancing the network:

              Trial  1: relative flow change = 0.000914
                        maximum  flow change = 0.1203 for Link p110
                        maximum  head error  = 0.0000 for Link PUMP_1

    20:30:00: Balanced after 1 trials
   
    20:35:00: Balancing the network:

              Trial  1: relative flow change = 0.002156
                        maximum  flow change = 0.2949 for Link p110
                        maximum  head error  = 0.0000 for Link PUMP_1

    20:35:00: Balanced after 1 trials
   
    20:40:00: Balancing the network:

              Trial  1: relative flow change = 0.003178
                        maximum  flow change = 0.4274 for Link p110
                        maximum  head error  = 0.0000 for Link PUMP_1

    20:40:00: Balanced after 1 trials
   
    20:45:00: Balancing the network:

              Trial  1: relative flow change = 0.003701
                        maximum  flow change = 0.4937 for Link p110
                        maximum  head error  = 0.0000 for Link PUMP_1

    20:45:00: Balanced after 1 trials
   
    20:50:00: Balancing the network:

              Trial  1: relative flow change = 0.003706
                        maximum  flow change = 0.5288 for Link PRV-1
                        maximum  head error  = 0.0000 for Link PUMP_1

    20:50:00: Balanced after 1 trials
   
    20:55:00: Balancing the network:

              Trial  1: relative flow change = 0.003105
                        maximum  flow change = 0.5246 for Link p227
                        maximum  head error  = 0.0000 for Link PUMP_1

    20:55:00: Balanced after 1 trials
   
    21:00:00: Balancing the network:

              Trial  1: relative flow change = 0.002039
                        maximum  flow change = 0.4194 for Link p227
                        maximum  head error  = 0.0000 for Link PUMP_1

    21:00:00: Balanced after 1 trials
   
    21:05:00: Balancing the network:

              Trial  1: relative flow change = 0.000602
                        maximum  flow change = 0.2638 for Link PRV-1
                        maximum  head error  = 0.0000 for Link PUMP_1

    21:05:00: Balanced after 1 trials
   
    21:10:00: Balancing the network:

              Trial  1: relative flow change = 0.000829
                        maximum  flow change = 0.1189 for Link p110
                        maximum  head error  = 0.0000 for Link PUMP_1

    21:10:00: Balanced after 1 trials
   
    21:15:00: Balancing the network:

              Trial  1: relative flow change = 0.001915
                        maximum  flow change = 0.2711 for Link p110
                        maximum  head error  = 0.0000 for Link PUMP_1

    21:15:00: Balanced after 1 trials
   
    21:20:00: Balancing the network:

              Trial  1: relative flow change = 0.002793
                        maximum  flow change = 0.3841 for Link p110
                        maximum  head error  = 0.0000 for Link PUMP_1

    21:20:00: Balanced after 1 trials
   
    21:25:00: Balancing the network:

              Trial  1: relative flow change = 0.003453
                        maximum  flow change = 0.4677 for Link p110
                        maximum  head error  = 0.0000 for Link PUMP_1

    21:25:00: Balanced after 1 trials
   
    21:30:00: Balancing the network:

              Trial  1: relative flow change = 0.004059
                        maximum  flow change = 0.5447 for Link p110
                        maximum  head error  = 0.0000 for Link PUMP_1

    21:30:00: Balanced after 1 trials
   
    21:35:00: Balancing the network:

              Trial  1: relative flow change = 0.004699
                        maximum  flow change = 0.6266 for Link p110
                        maximum  head error  = 0.0000 for Link PUMP_1

    21:35:00: Balanced after 1 trials
   
    21:40:00: Balancing the network:

              Trial  1: relative flow change = 0.005544
                        maximum  flow change = 0.7350 for Link p110
                        maximum  head error  = 0.0000 for Link PUMP_1

[...]
                        maximum  head error  = 0.0000 for Link p110

   162:50:00: Balanced after 1 trials
   
   162:55:00: Balancing the network:

              Trial  1: relative flow change = 0.001861
                        maximum  flow change = 0.2231 for Link PRV-1
                        maximum  head error  = 0.0000 for Link p110

   162:55:00: Balanced after 1 trials
   
   163:00:00: Balancing the network:

              Trial  1: relative flow change = 0.001449
                        maximum  flow change = 0.1742 for Link PRV-1
                        maximum  head error  = 0.0000 for Link p110

   163:00:00: Balanced after 1 trials
   
   163:05:00: Balancing the network:

              Trial  1: relative flow change = 0.000962
                        maximum  flow change = 0.1352 for Link p227
                        maximum  head error  = 0.0000 for Link p235

   163:05:00: Balanced after 1 trials
   
   163:06:42: Pump PUMP_1 changed by Tank T1 control
   163:06:42: Balancing the network:

              Trial  1: relative flow change = 0.999992
              Trial  2: relative flow change = 1.005831
              PRV PRV-3 switched from active to open
              Pump PUMP_1 switched from open to closed
              Trial  3: relative flow change = 7.854909
              PRV PRV-2 switched from active to open
              PRV PRV-3 switched from open to active
              Trial  4: relative flow change = 1.076816
              PRV PRV-2 switched from open to active
              Pump PUMP_1 switched from closed to open
              Trial  5: relative flow change = 1.336067
              PRV PRV-1 switched from active to closed
              PRV PRV-3 switched from active to open
              Trial  6: relative flow change = 0.981251
              PRV PRV-1 switched from closed to active
              PRV PRV-2 switched from active to open
              PRV PRV-3 switched from open to active
              Trial  7: relative flow change = 0.698711
              PRV PRV-2 switched from open to active
              Trial  8: relative flow change = 1.097825
              PRV PRV-1 switched from active to closed
              Trial  9: relative flow change = 2.159541
              Trial 10: relative flow change = 1.132640
              PRV PRV-1 switched from closed to active
              Trial 11: relative flow change = 1.114534
              Trial 12: relative flow change = 1.105113
              Trial 13: relative flow change = 1.082756
              Trial 14: relative flow change = 1.056700
              Trial 15: relative flow change = 1.015199
              Trial 16: relative flow change = 0.965793
              Trial 17: relative flow change = 0.882039
              Trial 18: relative flow change = 0.723381
              Trial 19: relative flow change = 0.531175
              Trial 20: relative flow change = 0.331323
              Trial 21: relative flow change = 0.150180
              Trial 22: relative flow change = 0.035028
              Trial 23: relative flow change = 0.002947
                        maximum  flow change = 2.4595 for Link PRV-2
                        maximum  head error  = 0.0019 for Link PUMP_1

   163:06:42: Balanced after 23 trials
   163:06:42: Tank T1 is filling at 2.40 m
   163:06:42: Pump PUMP_1 changed from closed to open
   
   163:10:00: Balancing the network:

              Trial  1: relative flow change = 0.000445
                        maximum  flow change = 0.1104 for Link PRV-2
                        maximum  head error  = 0.0000 for Link PUMP_1

   163:10:00: Balanced after 1 trials
   
   163:15:00: Balancing the network:

              Trial  1: relative flow change = 0.000290
                        maximum  flow change = 0.0584 for Link PRV-1
                        maximum  head error  = 0.0000 for Link PUMP_1

   163:15:00: Balanced after 1 trials
   
   163:20:00: Balancing the network:

              Trial  1: relative flow change = 0.000298
                        maximum  flow change = 0.0377 for Link PRV-1
                        maximum  head error  = 0.0000 for Link PUMP_1

   163:20:00: Balanced after 1 trials
   
   163:25:00: Balancing the network:

              Trial  1: relative flow change = 0.000446
                        maximum  flow change = 0.0553 for Link p110
                        maximum  head error  = 0.0000 for Link PUMP_1

   163:25:00: Balanced after 1 trials
   
   163:30:00: Balancing the network:

              Trial  1: relative flow change = 0.000646
                        maximum  flow change = 0.0800 for Link p110
                        maximum  head error  = 0.0000 for Link PUMP_1

   163:30:00: Balanced after 1 trials
   
   163:35:00: Balancing the network:

              Trial  1: relative flow change = 0.000879
                        maximum  flow change = 0.1091 for Link p110
                        maximum  head error  = 0.0000 for Link PUMP_1

   163:35:00: Balanced after 1 trials
   
   163:40:00: Balancing the network:

              Trial  1: relative flow change = 0.001031
                        maximum  flow change = 0.1256 for Link p110
                        maximum  head error  = 0.0000 for Link PUMP_1

   163:40:00: Balanced after 1 trials
   
   163:45:00: Balancing the network:

              Trial  1: relative flow change = 0.001060
                        maximum  flow change = 0.1442 for Link PRV-1
                        maximum  head error  = 0.0000 for Link PUMP_1

   163:45:00: Balanced after 1 trials
   
   163:50:00: Balancing the network:

              Trial  1: relative flow change = 0.000855
                        maximum  flow change = 0.1465 for Link PRV-1
                        maximum  head error  = 0.0000 for Link PUMP_1

   163:50:00: Balanced after 1 trials
   
   163:55:00: Balancing the network:

              Trial  1: relative flow change = 0.000474
                        maximum  flow change = 0.1144 for Link p227
                        maximum  head error  = 0.0000 for Link PUMP_1

   163:55:00: Balanced after 1 trials
   
   164:00:00: Balancing the network:

              Trial  1: relative flow change = 0.000257
                        maximum  flow change = 0.0565 for Link PRV-1
                        maximum  head error  = 0.0000 for Link PUMP_1

   164:00:00: Balanced after 1 trials
   
   164:05:00: Balancing the network:

              Trial  1: relative flow change = 0.000552
                        maximum  flow change = 0.0786 for Link p110
                        maximum  head error  = 0.0000 for Link PUMP_1

   164:05:00: Balanced after 1 trials
   
   164:10:00: Balancing the network:

              Trial  1: relative flow change = 0.000789
                        maximum  flow change = 0.1072 for Link p110
                        maximum  head error  = 0.0000 for Link PUMP_1

   164:10:00: Balanced after 1 trials
   
   164:15:00: Balancing the network:

              Trial  1: relative flow change = 0.000798
                        maximum  flow change = 0.1085 for Link p235
                        maximum  head error  = 0.0000 for Link PUMP_1

   164:15:00: Balanced after 1 trials
   
   164:20:00: Balancing the network:

              Trial  1: relative flow change = 0.000420
                        maximum  flow change = 0.1063 for Link p235
                        maximum  head error  = 0.0000 for Link PUMP_1

   164:20:00: Balanced after 1 trials
   
   164:25:00: Balancing the network:

              Trial  1: relative flow change = 0.000390
                        maximum  flow change = 0.0502 for Link PRV-2
                        maximum  head error  = 0.0000 for Link PUMP_1

   164:25:00: Balanced after 1 trials
   
   164:30:00: Balancing the network:

              Trial  1: relative flow change = 0.001221
                        maximum  flow change = 0.1661 for Link p110
                        maximum  head error  = 0.0000 for Link PUMP_1

   164:30:00: Balanced after 1 trials
   
   164:35:00: Balancing the network:

              Trial  1: relative flow change = 0.002163
                        maximum  flow change = 0.2891 for Link p110
                        maximum  head error  = 0.0000 for Link PUMP_1

   164:35:00: Balanced after 1 trials
   
   164:40:00: Balancing the network:

              Trial  1: relative flow change = 0.002876
                        maximum  flow change = 0.3812 for Link p110
                        maximum  head error  = 0.0000 for Link PUMP_1

   164:40:00: Balanced after 1 trials
   
   164:45:00: Balancing the network:

              Trial  1: relative flow change = 0.003292
                        maximum  flow change = 0.4320 for Link p110
                        maximum  head error  = 0.0000 for Link PUMP_1

   164:45:00: Balanced after 1 trials
   
   164:50:00: Balancing the network:

              Trial  1: relative flow change = 0.003216
                        maximum  flow change = 0.4657 for Link p227
                        maximum  head error  = 0.0000 for Link PUMP_1

   164:50:00: Balanced after 1 trials
   
   164:55:00: Balancing the network:

              Trial  1: relative flow change = 0.002728
                        maximum  flow change = 0.4524 for Link PRV-1
                        maximum  head error  = 0.0000 for Link PUMP_1

   164:55:00: Balanced after 1 trials
   
   165:00:00: Balancing the network:

              Trial  1: relative flow change = 0.001940
                        maximum  flow change = 0.3799 for Link PRV-1
                        maximum  head error  = 0.0000 for Link PUMP_1

   165:00:00: Balanced after 1 trials
   
   165:05:00: Balancing the network:

              Trial  1: relative flow change = 0.001073
                        maximum  flow change = 0.2660 for Link p227
                        maximum  head error  = 0.0000 for Link PUMP_1

   165:05:00: Balanced after 1 trials
   
   165:10:00: Balancing the network:

              Trial  1: relative flow change = 0.000300
                        maximum  flow change = 0.1247 for Link PRV-1
                        maximum  head error  = 0.0000 for Link PUMP_1

   165:10:00: Balanced after 1 trials
   
   165:15:00: Balancing the network:

              Trial  1: relative flow change = 0.001058
                        maximum  flow change = 0.1538 for Link p110
                        maximum  head error  = 0.0000 for Link PUMP_1

   165:15:00: Balanced after 1 trials
   
   165:20:00: Balancing the network:

              Trial  1: relative flow change = 0.001856
                        maximum  flow change = 0.2564 for Link p110
                        maximum  head error  = 0.0000 for Link PUMP_1

   165:20:00: Balanced after 1 trials
   
   165:25:00: Balancing the network:

              Trial  1: relative flow change = 0.002593
                        maximum  flow change = 0.3517 for Link p110
                        maximum  head error  = 0.0000 for Link PUMP_1

   165:25:00: Balanced after 1 trials
   
   165:30:00: Balancing the network:

              Trial  1: relative flow change = 0.003397
                        maximum  flow change = 0.4565 for Link p110
                        maximum  head error  = 0.0000 for Link PUMP_1

   165:30:00: Balanced after 1 trials
   
   165:35:00: Balancing the network:

              Trial  1: relative flow change = 0.004341
                        maximum  flow change = 0.5793 for Link p110
                        maximum  head error  = 0.0000 for Link PUMP_1

   165:35:00: Balanced after 1 trials
   
   165:40:00: Balancing the network:

              Trial  1: relative flow change = 0.005443
                        maximum  flow change = 0.7200 for Link p110
                        maximum  head error  = 0.0000 for Link PUMP_1

   165:40:00: Balanced after 1 trials
   
   165:45:00: Balancing the network:

              Trial  1: relative flow change = 0.006825
                        maximum  flow change = 0.8969 for Link p110
                        maximum  head error  = 0.0000 for Link PUMP_1

   165:45:00: Balanced after 1 trials
   
   165:50:00: Balancing the network:

              Trial  1: relative flow change = 0.008203
                        maximum  flow change = 1.0654 for Link p110
                        maximum  head error  = 0.0000 for Link PUMP_1

   165:50:00: Balanced after 1 trials
   
   165:55:00: Balancing the network:

              Trial  1: relative flow change = 0.009619
                        maximum  flow change = 1.2165 for Link p110
                        maximum  head error  = 0.0000 for Link PUMP_1

   165:55:00: Balanced after 1 trials
   
   166:00:00: Balancing the network:

              Trial  1: relative flow change = 0.010407
              Trial  2: relative flow change = 0.001283
                        maximum  flow change = 1.3854 for Link p227
                        maximum  head error  = 0.0000 for Link p590

   166:00:00: Balanced after 2 trials
   
   166:05:00: Balancing the network:

              Trial  1: relative flow change = 0.009690
                        maximum  flow change = 1.3037 for Link p110
                        maximum  head error  = 0.0000 for Link PUMP_1

   166:05:00: Balanced after 1 trials
   
   166:10:00: Balancing the network:

              Trial  1: relative flow change = 0.010690
              Trial  2: relative flow change = 0.001312
                        maximum  flow change = 1.3379 for Link p227
                        maximum  head error  = 0.0000 for Link p10

   166:10:00: Balanced after 2 trials
   
   166:15:00: Balancing the network:

              Trial  1: relative flow change = 0.008226
                        maximum  flow change = 1.0834 for Link p110
                        maximum  head error  = 0.0000 for Link PUMP_1

   166:15:00: Balanced after 1 trials
   
   166:20:00: Balancing the network:

              Trial  1: relative flow change = 0.007788
                        maximum  flow change = 1.1440 for Link p227
                        maximum  head error  = 0.0000 for Link PUMP_1

   166:20:00: Balanced after 1 trials
   
   166:25:00: Balancing the network:

              Trial  1: relative flow change = 0.006143
                        maximum  flow change = 0.9780 for Link PRV-1
                        maximum  head error  = 0.0000 for Link PUMP_1

   166:25:00: Balanced after 1 trials
   
   166:30:00: Balancing the network:

              Trial  1: relative flow change = 0.004850
                        maximum  flow change = 0.7648 for Link PRV-1
                        maximum  head error  = 0.0000 for Link PUMP_1

   166:30:00: Balanced after 1 trials
   
   166:35:00: Balancing the network:

              Trial  1: relative flow change = 0.004112
                        maximum  flow change = 0.6027 for Link PRV-1
                        maximum  head error  = 0.0000 for Link PUMP_1

   166:35:00: Balanced after 1 trials
   
   166:40:00: Balancing the network:

              Trial  1: relative flow change = 0.004059
                        maximum  flow change = 0.5071 for Link PRV-1
                        maximum  head error  = 0.0000 for Link PUMP_1

   166:40:00: Balanced after 1 trials
   
   166:45:00: Balancing the network:

              Trial  1: relative flow change = 0.004767
                        maximum  flow change = 0.5661 for Link p110
                        maximum  head error  = 0.0000 for Link PUMP_1

   166:45:00: Balanced after 1 trials
   
   166:50:00: Balancing the network:

              Trial  1: relative flow change = 0.006055
                        maximum  flow change = 0.7087 for Link p110
                        maximum  head error  = 0.0000 for Link PUMP_1

   166:50:00: Balanced after 1 trials
   
   166:55:00: Balancing the network:

              Trial  1: relative flow change = 0.007389
                        maximum  flow change = 0.8710 for Link p110
                        maximum  head error  = 0.0000 for Link PUMP_1

   166:55:00: Balanced after 1 trials
   
   167:00:00: Balancing the network:

              Trial  1: relative flow change = 0.008742
                        maximum  flow change = 1.0123 for Link p110
                        maximum  head error  = 0.0000 for Link PUMP_1

   167:00:00: Balanced after 1 trials
   
   167:05:00: Balancing the network:

              Trial  1: relative flow change = 0.009739
                        maximum  flow change = 1.0991 for Link p110
                        maximum  head error  = 0.0000 for Link PUMP_1

   167:05:00: Balanced after 1 trials
   
   167:10:00: Balancing the network:

              Trial  1: relative flow change = 0.010104
              Trial  2: relative flow change = 0.001225
                        maximum  flow change = 1.2021 for Link PRV-1
                        maximum  head error  = 0.0000 for Link p235

   167:10:00: Balanced after 2 trials
   
   167:15:00: Balancing the network:

              Trial  1: relative flow change = 0.008799
                        maximum  flow change = 1.0732 for Link p110
                        maximum  head error  = 0.0000 for Link PUMP_1

   167:15:00: Balanced after 1 trials
   
   167:20:00: Balancing the network:

              Trial  1: relative flow change = 0.009345
                        maximum  flow change = 1.1376 for Link p227
                        maximum  head error  = 0.0000 for Link PUMP_1

   167:20:00: Balanced after 1 trials
   
   167:25:00: Balancing the network:

              Trial  1: relative flow change = 0.008985
                        maximum  flow change = 1.0904 for Link PRV-1
                        maximum  head error  = 0.0000 for Link PUMP_1

   167:25:00: Balanced after 1 trials
   
   167:30:00: Balancing the network:

              Trial  1: relative flow change = 0.008767
                        maximum  flow change = 1.0201 for Link PRV-1
                        maximum  head error  = 0.0000 for Link PUMP_1

   167:30:00: Balanced after 1 trials
   
   167:35:00: Balancing the network:

              Trial  1: relative flow change = 0.008743
                        maximum  flow change = 0.9762 for Link PRV-1
                        maximum  head error  = 0.0000 for Link PUMP_1

   167:35:00: Balanced after 1 trials
   
   167:40:00: Balancing the network:

              Trial  1: relative flow change = 0.009529
                        maximum  flow change = 0.9951 for Link p110
                        maximum  head error  = 0.0000 for Link PUMP_1

   167:40:00: Balanced after 1 trials
   
   167:45:00: Balancing the network:

              Trial  1: relative flow change = 0.010618
              Trial  2: relative flow change = 0.001613
                        maximum  flow change = 1.1519 for Link PRV-1
                        maximum  head error  = 0.0000 for Link p235

   167:45:00: Balanced after 2 trials
   
   167:50:00: Balancing the network:

              Trial  1: relative flow change = 0.010343
              Trial  2: relative flow change = 0.002141
                        maximum  flow change = 1.2465 for Link p227
                        maximum  head error  = 0.0000 for Link p79

   167:50:00: Balanced after 2 trials
   
   167:55:00: Balancing the network:

              Trial  1: relative flow change = 0.012160
              Trial  2: relative flow change = 0.002085
                        maximum  flow change = 1.4014 for Link PRV-1
                        maximum  head error  = 0.0000 for Link p235

   167:55:00: Balanced after 2 trials
   
   168:00:00: Balancing the network:

              Trial  1: relative flow change = 0.012406
              Trial  2: relative flow change = 0.001911
                        maximum  flow change = 1.4548 for Link p227
                        maximum  head error  = 0.0000 for Link p235

   168:00:00: Balanced after 2 trials
   