  Page 1                                    Tue Jan 27 21:23:14 2026

  ******************************************************************
  *                           E P A N E T                          *
  *                   Hydraulic and Water Quality                  *
  *                   Analysis for Pipe Networks                   *
  *                         Version 2.2                            *
  ******************************************************************
  
  Analysis begun Tue Jan 27 21:23:14 2026

  WARNING: Negative pressures at 0:00:00 hrs.
   