  Page 1                                    Wed Jan 28 10:29:31 2026

  ******************************************************************
  *                           E P A N E T                          *
  *                   Hydraulic and Water Quality                  *
  *                   Analysis for Pipe Networks                   *
  *                         Version 2.2                            *
  ******************************************************************
  
  Analysis begun Wed Jan 28 10:29:31 2026

  Analysis ended Wed Jan 28 10:29:31 2026
