  Page 1                                    Tue Jan 20 16:25:27 2026

  ******************************************************************
  *                           E P A N E T                          *
  *                   Hydraulic and Water Quality                  *
  *                   Analysis for Pipe Networks                   *
  *                         Version 2.2                            *
  ******************************************************************
  
  Analysis begun Tue Jan 20 16:25:27 2026

  Analysis ended Tue Jan 20 16:25:27 2026
