  Page 1                                    Wed Jan 28 23:20:39 2026

  ******************************************************************
  *                           E P A N E T                          *
  *                   Hydraulic and Water Quality                  *
  *                   Analysis for Pipe Networks                   *
  *                         Version 2.2                            *
  ******************************************************************
  
  Analysis begun Wed Jan 28 23:20:39 2026

   
  Hydraulic Status:
  -----------------------------------------------------------------------
     0:00:00: Balancing the network:

              Trial  1: relative flow change = 7.234102
              PRV PRV-2 switched from active to closed
              Trial  2: relative flow change = 2.372207
              PRV PRV-2 switched from closed to active
              Trial  3: relative flow change = 1.205190
              Trial  4: relative flow change = 0.528595
              Trial  5: relative flow change = 0.190518
              Trial  6: relative flow change = 0.057794
              Trial  7: relative flow change = 0.017713
              Trial  8: relative flow change = 0.007089
                        maximum  flow change = 0.8986 for Link p520
                        maximum  head error  = 0.0019 for Link p520

     0:00:00: Balanced after 8 trials
     0:00:00: Reservoir R1 is emptying
     0:00:00: Reservoir R2 is emptying
     0:00:00: Tank T1 is filling at 3.50 m
   
     0:05:00: Balancing the network:

              Trial  1: relative flow change = 0.014893
              Trial  2: relative flow change = 0.002384
                        maximum  flow change = 1.6711 for Link p235
                        maximum  head error  = 0.0002 for Link p667

     0:05:00: Balanced after 2 trials
   
     0:10:00: Balancing the network:

              Trial  1: relative flow change = 0.013787
              Trial  2: relative flow change = 0.002110
                        maximum  flow change = 1.6867 for Link p235
                        maximum  head error  = 0.0000 for Link p700

     0:10:00: Balanced after 2 trials
   
     0:15:00: Balancing the network:

              Trial  1: relative flow change = 0.013806
              Trial  2: relative flow change = 0.002144
                        maximum  flow change = 1.6656 for Link PRV-2
                        maximum  head error  = 0.0000 for Link p700

     0:15:00: Balanced after 2 trials
   
     0:20:00: Balancing the network:

              Trial  1: relative flow change = 0.013677
              Trial  2: relative flow change = 0.002160
                        maximum  flow change = 1.6261 for Link PRV-2
                        maximum  head error  = 0.0000 for Link p700

     0:20:00: Balanced after 2 trials
   
     0:25:00: Balancing the network:

              Trial  1: relative flow change = 0.013568
              Trial  2: relative flow change = 0.002185
                        maximum  flow change = 1.5899 for Link p235
                        maximum  head error  = 0.0000 for Link p700

     0:25:00: Balanced after 2 trials
   
     0:30:00: Balancing the network:

              Trial  1: relative flow change = 0.013587
              Trial  2: relative flow change = 0.002221
                        maximum  flow change = 1.5691 for Link p235
                        maximum  head error  = 0.0000 for Link p700

     0:30:00: Balanced after 2 trials
   
     0:35:00: Balancing the network:

              Trial  1: relative flow change = 0.013669
              Trial  2: relative flow change = 0.002258
                        maximum  flow change = 1.5552 for Link PRV-2
                        maximum  head error  = 0.0000 for Link p700

     0:35:00: Balanced after 2 trials
   
     0:40:00: Balancing the network:

              Trial  1: relative flow change = 0.013951
              Trial  2: relative flow change = 0.002330
                        maximum  flow change = 1.5633 for Link p235
                        maximum  head error  = 0.0000 for Link p700

     0:40:00: Balanced after 2 trials
   
     0:45:00: Balancing the network:

              Trial  1: relative flow change = 0.014156
              Trial  2: relative flow change = 0.002346
                        maximum  flow change = 1.5604 for Link PRV-2
                        maximum  head error  = 0.0000 for Link p700

     0:45:00: Balanced after 2 trials
   
     0:50:00: Balancing the network:

              Trial  1: relative flow change = 0.014242
              Trial  2: relative flow change = 0.002384
                        maximum  flow change = 1.5497 for Link PRV-2
                        maximum  head error  = 0.0000 for Link p700

     0:50:00: Balanced after 2 trials
   
     0:55:00: Balancing the network:

              Trial  1: relative flow change = 0.014150
              Trial  2: relative flow change = 0.002349
                        maximum  flow change = 1.5142 for Link PRV-2
                        maximum  head error  = 0.0000 for Link p700

     0:55:00: Balanced after 2 trials
   
     1:00:00: Balancing the network:

              Trial  1: relative flow change = 0.013973
              Trial  2: relative flow change = 0.002311
                        maximum  flow change = 1.4719 for Link PRV-2
                        maximum  head error  = 0.0000 for Link p623

     1:00:00: Balanced after 2 trials
   
     1:05:00: Balancing the network:

              Trial  1: relative flow change = 0.013588
              Trial  2: relative flow change = 0.002274
                        maximum  flow change = 1.4068 for Link PRV-2
                        maximum  head error  = 0.0000 for Link p623

     1:05:00: Balanced after 2 trials
   
     1:10:00: Balancing the network:

              Trial  1: relative flow change = 0.013156
              Trial  2: relative flow change = 0.002139
                        maximum  flow change = 1.3456 for Link p235
                        maximum  head error  = 0.0000 for Link p700

     1:10:00: Balanced after 2 trials
   
     1:15:00: Balancing the network:

              Trial  1: relative flow change = 0.012879
              Trial  2: relative flow change = 0.002086
                        maximum  flow change = 1.2983 for Link p235
                        maximum  head error  = 0.0000 for Link p700

     1:15:00: Balanced after 2 trials
   
     1:20:00: Balancing the network:

              Trial  1: relative flow change = 0.012758
              Trial  2: relative flow change = 0.002061
                        maximum  flow change = 1.2678 for Link PRV-2
                        maximum  head error  = 0.0000 for Link p700

     1:20:00: Balanced after 2 trials
   
     1:25:00: Balancing the network:

              Trial  1: relative flow change = 0.012751
              Trial  2: relative flow change = 0.002081
                        maximum  flow change = 1.2505 for Link PRV-2
                        maximum  head error  = 0.0000 for Link p700

     1:25:00: Balanced after 2 trials
   
     1:30:00: Balancing the network:

              Trial  1: relative flow change = 0.012920
              Trial  2: relative flow change = 0.002152
                        maximum  flow change = 1.2499 for Link p235
                        maximum  head error  = 0.0000 for Link p639

     1:30:00: Balanced after 2 trials
   
     1:35:00: Balancing the network:

              Trial  1: relative flow change = 0.013058
              Trial  2: relative flow change = 0.002215
                        maximum  flow change = 1.2462 for Link PRV-2
                        maximum  head error  = 0.0000 for Link p639

     1:35:00: Balanced after 2 trials
   
     1:40:00: Balancing the network:

              Trial  1: relative flow change = 0.013022
              Trial  2: relative flow change = 0.002213
                        maximum  flow change = 1.2267 for Link PRV-2
                        maximum  head error  = 0.0000 for Link p700

     1:40:00: Balanced after 2 trials
   
     1:45:00: Balancing the network:

              Trial  1: relative flow change = 0.012756
              Trial  2: relative flow change = 0.002184
                        maximum  flow change = 1.1873 for Link PRV-2
                        maximum  head error  = 0.0000 for Link p700

     1:45:00: Balanced after 2 trials
   
     1:50:00: Balancing the network:

              Trial  1: relative flow change = 0.012191
              Trial  2: relative flow change = 0.002091
                        maximum  flow change = 1.1214 for Link p235
                        maximum  head error  = 0.0000 for Link p700

     1:50:00: Balanced after 2 trials
   
     1:55:00: Balancing the network:

              Trial  1: relative flow change = 0.011424
              Trial  2: relative flow change = 0.001958
                        maximum  flow change = 1.0389 for Link PRV-2
                        maximum  head error  = 0.0000 for Link p700

     1:55:00: Balanced after 2 trials
   
     2:00:00: Balancing the network:

              Trial  1: relative flow change = 0.010317
              Trial  2: relative flow change = 0.001754
                        maximum  flow change = 0.9280 for Link PRV-2
                        maximum  head error  = 0.0000 for Link p700

     2:00:00: Balanced after 2 trials
   
     2:05:00: Balancing the network:

              Trial  1: relative flow change = 0.009328
                        maximum  flow change = 0.8308 for Link p110
                        maximum  head error  = 0.0003 for Link p239

     2:05:00: Balanced after 1 trials
   
     2:10:00: Balancing the network:

              Trial  1: relative flow change = 0.009877
                        maximum  flow change = 0.8399 for Link p235
                        maximum  head error  = 0.0002 for Link p239

     2:10:00: Balanced after 1 trials
   
     2:15:00: Balancing the network:

              Trial  1: relative flow change = 0.009023
                        maximum  flow change = 0.7883 for Link p235
                        maximum  head error  = 0.0002 for Link p239

     2:15:00: Balanced after 1 trials
   
     2:20:00: Balancing the network:

              Trial  1: relative flow change = 0.008513
                        maximum  flow change = 0.7138 for Link p235
                        maximum  head error  = 0.0002 for Link p239

     2:20:00: Balanced after 1 trials
   
     2:25:00: Balancing the network:

              Trial  1: relative flow change = 0.008316
                        maximum  flow change = 0.6717 for Link p235
                        maximum  head error  = 0.0002 for Link p239

     2:25:00: Balanced after 1 trials
   
     2:29:38: Pump PUMP_1 changed by Tank T1 control
     2:29:38: Balancing the network:

              Trial  1: relative flow change = 1.178168
              Trial  2: relative flow change = 0.097210
              Trial  3: relative flow change = 0.008761
                        maximum  flow change = 0.2402 for Link p39
                        maximum  head error  = 0.0005 for Link p367

     2:29:38: Balanced after 3 trials
     2:29:38: Tank T1 is emptying at 3.90 m
     2:29:38: Pump PUMP_1 changed from open to closed
   
     2:30:00: Balancing the network:

              Trial  1: relative flow change = 0.015592
              Trial  2: relative flow change = 0.002666
                        maximum  flow change = 0.6205 for Link p235
                        maximum  head error  = 0.0000 for Link p700

     2:30:00: Balanced after 2 trials
   
     2:35:00: Balancing the network:

              Trial  1: relative flow change = 0.016070
              Trial  2: relative flow change = 0.002837
                        maximum  flow change = 0.6319 for Link p235
                        maximum  head error  = 0.0000 for Link p700

     2:35:00: Balanced after 2 trials
   
     2:40:00: Balancing the network:

              Trial  1: relative flow change = 0.016442
              Trial  2: relative flow change = 0.002993
                        maximum  flow change = 0.6349 for Link p235
                        maximum  head error  = 0.0000 for Link p700

     2:40:00: Balanced after 2 trials
   
     2:45:00: Balancing the network:

              Trial  1: relative flow change = 0.016796
              Trial  2: relative flow change = 0.003104
                        maximum  flow change = 0.6362 for Link p235
                        maximum  head error  = 0.0000 for Link p700

     2:45:00: Balanced after 2 trials
   
     2:50:00: Balancing the network:

              Trial  1: relative flow change = 0.016709
              Trial  2: relative flow change = 0.003129
                        maximum  flow change = 0.6208 for Link p235
                        maximum  head error  = 0.0000 for Link p700

     2:50:00: Balanced after 2 trials
   
     2:55:00: Balancing the network:

              Trial  1: relative flow change = 0.015821
              Trial  2: relative flow change = 0.002983
                        maximum  flow change = 0.5768 for Link PRV-2
                        maximum  head error  = 0.0000 for Link p700

     2:55:00: Balanced after 2 trials
   
     3:00:00: Balancing the network:

              Trial  1: relative flow change = 0.014693
              Trial  2: relative flow change = 0.002759
                        maximum  flow change = 0.5262 for Link PRV-2
                        maximum  head error  = 0.0000 for Link p700

     3:00:00: Balanced after 2 trials
   
     3:05:00: Balancing the network:

              Trial  1: relative flow change = 0.013203
              Trial  2: relative flow change = 0.002497
                        maximum  flow change = 0.4655 for Link p235
                        maximum  head error  = 0.0000 for Link p700

     3:05:00: Balanced after 2 trials
   
     3:10:00: Balancing the network:

              Trial  1: relative flow change = 0.011460
              Trial  2: relative flow change = 0.002158
                        maximum  flow change = 0.3981 for Link p235
                        maximum  head error  = 0.0000 for Link p700

     3:10:00: Balanced after 2 trials
   
     3:15:00: Balancing the network:

              Trial  1: relative flow change = 0.009768
                        maximum  flow change = 0.3354 for Link p110
                        maximum  head error  = 0.0000 for Link p239

     3:15:00: Balanced after 1 trials
   
     3:20:00: Balancing the network:

              Trial  1: relative flow change = 0.009834
                        maximum  flow change = 0.3387 for Link p235
                        maximum  head error  = 0.0000 for Link p239

     3:20:00: Balanced after 1 trials
   
     3:25:00: Balancing the network:

              Trial  1: relative flow change = 0.008768
                        maximum  flow change = 0.2992 for Link p235
                        maximum  head error  = 0.0000 for Link p239

     3:25:00: Balanced after 1 trials
   
     3:30:00: Balancing the network:

              Trial  1: relative flow change = 0.008184
                        maximum  flow change = 0.2662 for Link p235
                        maximum  head error  = 0.0000 for Link p239

     3:30:00: Balanced after 1 trials
   
     3:35:00: Balancing the network:

              Trial  1: relative flow change = 0.008125
                        maximum  flow change = 0.2478 for Link p235
                        maximum  head error  = 0.0000 for Link p239

     3:35:00: Balanced after 1 trials
   
     3:40:00: Balancing the network:

              Trial  1: relative flow change = 0.008781
                        maximum  flow change = 0.2623 for Link p110
                        maximum  head error  = 0.0000 for Link p239

     3:40:00: Balanced after 1 trials
   
     3:45:00: Balancing the network:

              Trial  1: relative flow change = 0.009368
                        maximum  flow change = 0.2765 for Link p110
                        maximum  head error  = 0.0000 for Link p239

     3:45:00: Balanced after 1 trials
   
     3:50:00: Balancing the network:

              Trial  1: relative flow change = 0.009910
                        maximum  flow change = 0.2897 for Link p110
                        maximum  head error  = 0.0000 for Link p239

     3:50:00: Balanced after 1 trials
   
     3:55:00: Balancing the network:

              Trial  1: relative flow change = 0.009868
                        maximum  flow change = 0.2930 for Link p235
                        maximum  head error  = 0.0000 for Link p239

     3:55:00: Balanced after 1 trials
   
     4:00:00: Balancing the network:

              Trial  1: relative flow change = 0.009346
                        maximum  flow change = 0.2873 for Link p235
                        maximum  head error  = 0.0000 for Link p239

     4:00:00: Balanced after 1 trials
   
     4:05:00: Balancing the network:

              Trial  1: relative flow change = 0.007858
                        maximum  flow change = 0.2685 for Link p235
                        maximum  head error  = 0.0000 for Link p239

     4:05:00: Balanced after 1 trials
   
     4:10:00: Balancing the network:

              Trial  1: relative flow change = 0.005853
                        maximum  flow change = 0.2210 for Link p235
                        maximum  head error  = 0.0000 for Link p239

     4:10:00: Balanced after 1 trials
   
     4:15:00: Balancing the network:

              Trial  1: relative flow change = 0.003659
                        maximum  flow change = 0.1621 for Link p235
                        maximum  head error  = 0.0000 for Link p239

     4:15:00: Balanced after 1 trials
   
     4:20:00: Balancing the network:

              Trial  1: relative flow change = 0.001576
                        maximum  flow change = 0.0979 for Link p235
                        maximum  head error  = 0.0000 for Link p110

     4:20:00: Balanced after 1 trials
   
     4:25:00: Balancing the network:

              Trial  1: relative flow change = 0.001063
                        maximum  flow change = 0.0380 for Link PRV-2
                        maximum  head error  = 0.0000 for Link p239

     4:25:00: Balanced after 1 trials
   
     4:30:00: Balancing the network:

              Trial  1: relative flow change = 0.001973
                        maximum  flow change = 0.0513 for Link p110
                        maximum  head error  = 0.0000 for Link p239

     4:30:00: Balanced after 1 trials
   
     4:35:00: Balancing the network:

              Trial  1: relative flow change = 0.003213
                        maximum  flow change = 0.0906 for Link p110
                        maximum  head error  = 0.0000 for Link p239

     4:35:00: Balanced after 1 trials
   
     4:40:00: Balancing the network:

              Trial  1: relative flow change = 0.004297
                        maximum  flow change = 0.1244 for Link p110
                        maximum  head error  = 0.0000 for Link p239

     4:40:00: Balanced after 1 trials
   
     4:45:00: Balancing the network:

              Trial  1: relative flow change = 0.005783
                        maximum  flow change = 0.1704 for Link p110
                        maximum  head error  = 0.0000 for Link p239

     4:45:00: Balanced after 1 trials
   
     4:50:00: Balancing the network:

              Trial  1: relative flow change = 0.008051
                        maximum  flow change = 0.2392 for Link p110
                        maximum  head error  = 0.0000 for Link p239

     4:50:00: Balanced after 1 trials
   
     4:55:00: Balancing the network:

              Trial  1: relative flow change = 0.011112
              Trial  2: relative flow change = 0.001593
                        maximum  flow change = 0.3328 for Link p235
                        maximum  head error  = 0.0000 for Link p700

     4:55:00: Balanced after 2 trials
   
     5:00:00: Balancing the network:

              Trial  1: relative flow change = 0.013354
              Trial  2: relative flow change = 0.002085
                        maximum  flow change = 0.4339 for Link PRV-2
                        maximum  head error  = 0.0000 for Link p700

     5:00:00: Balanced after 2 trials
   
     5:05:00: Balancing the network:

              Trial  1: relative flow change = 0.017203
              Trial  2: relative flow change = 0.002681
                        maximum  flow change = 0.5682 for Link PRV-2
                        maximum  head error  = 0.0000 for Link p510

     5:05:00: Balanced after 2 trials
   
     5:10:00: Balancing the network:

              Trial  1: relative flow change = 0.021021
              Trial  2: relative flow change = 0.003003
                        maximum  flow change = 0.7099 for Link PRV-2
                        maximum  head error  = 0.0000 for Link p700

     5:10:00: Balanced after 2 trials
   
     5:15:00: Balancing the network:

              Trial  1: relative flow change = 0.024931
              Trial  2: relative flow change = 0.003355
                        maximum  flow change = 0.8656 for Link p235
                        maximum  head error  = 0.0000 for Link p700

     5:15:00: Balanced after 2 trials
   
     5:20:00: Balancing the network:

              Trial  1: relative flow change = 0.028957
              Trial  2: relative flow change = 0.003645
                        maximum  flow change = 1.0372 for Link PRV-2
                        maximum  head error  = 0.0000 for Link p700

     5:20:00: Balanced after 2 trials
   
     5:25:00: Balancing the network:

              Trial  1: relative flow change = 0.033146
              Trial  2: relative flow change = 0.003872
                        maximum  flow change = 1.2297 for Link PRV-2
                        maximum  head error  = 0.0000 for Link p700

     5:25:00: Balanced after 2 trials
   
     5:30:00: Balancing the network:

              Trial  1: relative flow change = 0.038024
              Trial  2: relative flow change = 0.004208
                        maximum  flow change = 1.4700 for Link p235
                        maximum  head error  = 0.0000 for Link p700

     5:30:00: Balanced after 2 trials
   
     5:35:00: Balancing the network:

              Trial  1: relative flow change = 0.043767
              Trial  2: relative flow change = 0.004597
                        maximum  flow change = 1.7742 for Link PRV-2
                        maximum  head error  = 0.0000 for Link p700

     5:35:00: Balanced after 2 trials
   
     5:40:00: Balancing the network:

              Trial  1: relative flow change = 0.050085
              Trial  2: relative flow change = 0.005146
                        maximum  flow change = 2.1461 for Link p235
                        maximum  head error  = 0.0000 for Link p700

     5:40:00: Balanced after 2 trials
   
     5:45:00: Balancing the network:

              Trial  1: relative flow change = 0.056523
              Trial  2: relative flow change = 0.005754
                        maximum  flow change = 2.5796 for Link PRV-2
                        maximum  head error  = 0.0000 for Link p700

     5:45:00: Balanced after 2 trials
   
     5:50:00: Balancing the network:

              Trial  1: relative flow change = 0.062303
              Trial  2: relative flow change = 0.006384
                        maximum  flow change = 3.0501 for Link PRV-2
                        maximum  head error  = 0.0000 for Link p700

     5:50:00: Balanced after 2 trials
   
     5:55:00: Balancing the network:

              Trial  1: relative flow change = 0.066534
              Trial  2: relative flow change = 0.006924
                        maximum  flow change = 3.5132 for Link p235
                        maximum  head error  = 0.0000 for Link p700

     5:55:00: Balanced after 2 trials
   
     6:00:00: Balancing the network:

              Trial  1: relative flow change = 0.068451
              Trial  2: relative flow change = 0.007276
                        maximum  flow change = 3.9090 for Link PRV-2
                        maximum  head error  = 0.0000 for Link p700

     6:00:00: Balanced after 2 trials
   
     6:05:00: Balancing the network:

              Trial  1: relative flow change = 0.067929
              Trial  2: relative flow change = 0.007395
                        maximum  flow change = 4.1950 for Link p235
                        maximum  head error  = 0.0000 for Link p700

     6:05:00: Balanced after 2 trials
   
     6:10:00: Balancing the network:

              Trial  1: relative flow change = 0.064834
              Trial  2: relative flow change = 0.007268
                        maximum  flow change = 4.3161 for Link PRV-2
                        maximum  head error  = 0.0000 for Link p700

     6:10:00: Balanced after 2 trials
   
     6:15:00: Balancing the network:

              Trial  1: relative flow change = 0.059808
              Trial  2: relative flow change = 0.006944
                        maximum  flow change = 4.2692 for Link PRV-2
                        maximum  head error  = 0.0000 for Link p700

     6:15:00: Balanced after 2 trials
   
     6:20:00: Balancing the network:

              Trial  1: relative flow change = 0.053443
              Trial  2: relative flow change = 0.006431
                        maximum  flow change = 4.0616 for Link p235
                        maximum  head error  = 0.0000 for Link p700

     6:20:00: Balanced after 2 trials
   
     6:25:00: Balancing the network:

              Trial  1: relative flow change = 0.046533
              Trial  2: relative flow change = 0.005863
                        maximum  flow change = 3.7374 for Link PRV-2
                        maximum  head error  = 0.0000 for Link p700

     6:25:00: Balanced after 2 trials
   
     6:30:00: Balancing the network:

              Trial  1: relative flow change = 0.039918
              Trial  2: relative flow change = 0.005262
                        maximum  flow change = 3.3627 for Link p235
                        maximum  head error  = 0.0000 for Link p700

     6:30:00: Balanced after 2 trials
   
     6:35:00: Balancing the network:

              Trial  1: relative flow change = 0.034239
              Trial  2: relative flow change = 0.004763
                        maximum  flow change = 3.0065 for Link PRV-2
                        maximum  head error  = 0.0000 for Link p700

     6:35:00: Balanced after 2 trials
   
     6:40:00: Balancing the network:

              Trial  1: relative flow change = 0.029963
              Trial  2: relative flow change = 0.004361
                        maximum  flow change = 2.7280 for Link p235
                        maximum  head error  = 0.0000 for Link p700

     6:40:00: Balanced after 2 trials
   
     6:45:00: Balancing the network:

              Trial  1: relative flow change = 0.027251
              Trial  2: relative flow change = 0.004098
                        maximum  flow change = 2.5628 for Link PRV-2
                        maximum  head error  = 0.0000 for Link p700

     6:45:00: Balanced after 2 trials
   
     6:50:00: Balancing the network:

              Trial  1: relative flow change = 0.026015
              Trial  2: relative flow change = 0.003986
                        maximum  flow change = 2.5226 for Link p235
                        maximum  head error  = 0.0000 for Link p700

     6:50:00: Balanced after 2 trials
   
     6:55:00: Balancing the network:

              Trial  1: relative flow change = 0.025835
              Trial  2: relative flow change = 0.003984
                        maximum  flow change = 2.5815 for Link PRV-2
                        maximum  head error  = 0.0000 for Link p700

     6:55:00: Balanced after 2 trials
   
     7:00:00: Balancing the network:

              Trial  1: relative flow change = 0.025934
              Trial  2: relative flow change = 0.003986
                        maximum  flow change = 2.6700 for Link PRV-2
                        maximum  head error  = 0.0000 for Link p700

     7:00:00: Balanced after 2 trials
   
     7:05:00: Balancing the network:

              Trial  1: relative flow change = 0.026042
              Trial  2: relative flow change = 0.004013
                        maximum  flow change = 2.7632 for Link PRV-2
                        maximum  head error  = 0.0000 for Link p700

     7:05:00: Balanced after 2 trials
   
     7:10:00: Balancing the network:

              Trial  1: relative flow change = 0.025386
              Trial  2: relative flow change = 0.003947
                        maximum  flow change = 2.7745 for Link PRV-2
                        maximum  head error  = 0.0000 for Link p700

     7:10:00: Balanced after 2 trials
   
     7:15:00: Balancing the network:

              Trial  1: relative flow change = 0.023851
              Trial  2: relative flow change = 0.003790
                        maximum  flow change = 2.6814 for Link PRV-2
                        maximum  head error  = 0.0000 for Link p700

     7:15:00: Balanced after 2 trials
   
     7:20:00: Balancing the network:

              Trial  1: relative flow change = 0.021438
              Trial  2: relative flow change = 0.003544
                        maximum  flow change = 2.4735 for Link p235
                        maximum  head error  = 0.0000 for Link p700

     7:20:00: Balanced after 2 trials
   
     7:25:00: Balancing the network:

              Trial  1: relative flow change = 0.018314
              Trial  2: relative flow change = 0.003204
                        maximum  flow change = 2.1618 for Link p235
                        maximum  head error  = 0.0000 for Link p700

     7:25:00: Balanced after 2 trials
   
     7:30:00: Balancing the network:

              Trial  1: relative flow change = 0.014860
              Trial  2: relative flow change = 0.002821
                        maximum  flow change = 1.7886 for Link PRV-2
                        maximum  head error  = 0.0000 for Link p700

     7:30:00: Balanced after 2 trials
   
     7:35:00: Balancing the network:

              Trial  1: relative flow change = 0.011557
              Trial  2: relative flow change = 0.002448
                        maximum  flow change = 1.4123 for Link p235
                        maximum  head error  = 0.0000 for Link p700

     7:35:00: Balanced after 2 trials
   
     7:40:00: Balancing the network:

              Trial  1: relative flow change = 0.008603
                        maximum  flow change = 1.0621 for Link p110
                        maximum  head error  = 0.0002 for Link p239

     7:40:00: Balanced after 1 trials
   
     7:45:00: Balancing the network:

              Trial  1: relative flow change = 0.007970
                        maximum  flow change = 1.0705 for Link p235
                        maximum  head error  = 0.0001 for Link p239

     7:45:00: Balanced after 1 trials
   
     7:50:00: Balancing the network:

              Trial  1: relative flow change = 0.006199
                        maximum  flow change = 0.8689 for Link p235
                        maximum  head error  = 0.0000 for Link p110

     7:50:00: Balanced after 1 trials
   
     7:55:00: Balancing the network:

              Trial  1: relative flow change = 0.005088
                        maximum  flow change = 0.6722 for Link p235
                        maximum  head error  = 0.0000 for Link p110

     7:55:00: Balanced after 1 trials
   
     8:00:00: Balancing the network:

              Trial  1: relative flow change = 0.004653
                        maximum  flow change = 0.5532 for Link p235
                        maximum  head error  = 0.0000 for Link p110

     8:00:00: Balanced after 1 trials
   
     8:05:00: Balancing the network:

              Trial  1: relative flow change = 0.004538
                        maximum  flow change = 0.5121 for Link p235
                        maximum  head error  = 0.0000 for Link p110

     8:05:00: Balanced after 1 trials
   
     8:10:00: Balancing the network:

              Trial  1: relative flow change = 0.004678
                        maximum  flow change = 0.5241 for Link p110
                        maximum  head error  = 0.0000 for Link p110

     8:10:00: Balanced after 1 trials
   
     8:15:00: Balancing the network:

              Trial  1: relative flow change = 0.004856
                        maximum  flow change = 0.5490 for Link p110
                        maximum  head error  = 0.0000 for Link p110

     8:15:00: Balanced after 1 trials
   
     8:20:00: Balancing the network:

              Trial  1: relative flow change = 0.004929
                        maximum  flow change = 0.5594 for Link p110
                        maximum  head error  = 0.0000 for Link p110

     8:20:00: Balanced after 1 trials
   
     8:25:00: Balancing the network:

              Trial  1: relative flow change = 0.004854
                        maximum  flow change = 0.5643 for Link p235
                        maximum  head error  = 0.0000 for Link p110

     8:25:00: Balanced after 1 trials
   
     8:30:00: Balancing the network:

              Trial  1: relative flow change = 0.004704
                        maximum  flow change = 0.5563 for Link p235
                        maximum  head error  = 0.0000 for Link p110

     8:30:00: Balanced after 1 trials
   
     8:35:00: Balancing the network:

              Trial  1: relative flow change = 0.004441
                        maximum  flow change = 0.5411 for Link p235
                        maximum  head error  = 0.0000 for Link p110

     8:35:00: Balanced after 1 trials
   
     8:40:00: Balancing the network:

              Trial  1: relative flow change = 0.004082
                        maximum  flow change = 0.5108 for Link p235
                        maximum  head error  = 0.0000 for Link p110

     8:40:00: Balanced after 1 trials
   
     8:45:00: Balancing the network:

              Trial  1: relative flow change = 0.003732
                        maximum  flow change = 0.4694 for Link p235
                        maximum  head error  = 0.0000 for Link p110

     8:45:00: Balanced after 1 trials
   
     8:50:00: Balancing the network:

              Trial  1: relative flow change = 0.003337
                        maximum  flow change = 0.4302 for Link p235
                        maximum  head error  = 0.0000 for Link p110

     8:50:00: Balanced after 1 trials
   
     8:55:00: Balancing the network:

              Trial  1: relative flow change = 0.002856
                        maximum  flow change = 0.3849 for Link p235
                        maximum  head error  = 0.0000 for Link p110

     8:55:00: Balanced after 1 trials
   
     9:00:00: Balancing the network:

              Trial  1: relative flow change = 0.002508
                        maximum  flow change = 0.3281 for Link p235
                        maximum  head error  = 0.0000 for Link p110

     9:00:00: Balanced after 1 trials
   
     9:05:00: Balancing the network:

              Trial  1: relative flow change = 0.002139
                        maximum  flow change = 0.2906 for Link p235
                        maximum  head error  = 0.0000 for Link p110

     9:05:00: Balanced after 1 trials
   
     9:10:00: Balancing the network:

              Trial  1: relative flow change = 0.001884
                        maximum  flow change = 0.2473 for Link p235
                        maximum  head error  = 0.0000 for Link p110

     9:10:00: Balanced after 1 trials
   
     9:15:00: Balancing the network:

              Trial  1: relative flow change = 0.001821
                        maximum  flow change = 0.2199 for Link p235
                        maximum  head error  = 0.0000 for Link p110

     9:15:00: Balanced after 1 trials
   
     9:20:00: Balancing the network:

              Trial  1: relative flow change = 0.001779
                        maximum  flow change = 0.2158 for Link p235
                        maximum  head error  = 0.0000 for Link p110

     9:20:00: Balanced after 1 trials
   
     9:25:00: Balancing the network:

              Trial  1: relative flow change = 0.001885
                        maximum  flow change = 0.2252 for Link p110
                        maximum  head error  = 0.0000 for Link p239

     9:25:00: Balanced after 1 trials
   
     9:30:00: Balancing the network:

              Trial  1: relative flow change = 0.001904
                        maximum  flow change = 0.2277 for Link p110
                        maximum  head error  = 0.0000 for Link p239

     9:30:00: Balanced after 1 trials
   
     9:35:00: Balancing the network:

              Trial  1: relative flow change = 0.001883
                        maximum  flow change = 0.2300 for Link p235
                        maximum  head error  = 0.0000 for Link p239

     9:35:00: Balanced after 1 trials
   
     9:40:00: Balancing the network:

              Trial  1: relative flow change = 0.001681
                        maximum  flow change = 0.2275 for Link p235
                        maximum  head error  = 0.0000 for Link p239

     9:40:00: Balanced after 1 trials
   
     9:45:00: Balancing the network:

              Trial  1: relative flow change = 0.001267
                        maximum  flow change = 0.2007 for Link p235
                        maximum  head error  = 0.0000 for Link p110

     9:45:00: Balanced after 1 trials
   
     9:50:00: Balancing the network:

              Trial  1: relative flow change = 0.000723
                        maximum  flow change = 0.1473 for Link p235
                        maximum  head error  = 0.0000 for Link p110

     9:50:00: Balanced after 1 trials
   
     9:55:00: Balancing the network:

              Trial  1: relative flow change = 0.000431
                        maximum  flow change = 0.0754 for Link PRV-2
                        maximum  head error  = 0.0000 for Link p239

     9:55:00: Balanced after 1 trials
   
    10:00:00: Balancing the network:

              Trial  1: relative flow change = 0.000833
                        maximum  flow change = 0.0907 for Link p110
                        maximum  head error  = 0.0000 for Link p239

    10:00:00: Balanced after 1 trials
   
    10:05:00: Balancing the network:

              Trial  1: relative flow change = 0.001318
                        maximum  flow change = 0.1533 for Link p110
                        maximum  head error  = 0.0000 for Link p239

    10:05:00: Balanced after 1 trials
   
    10:10:00: Balancing the network:

              Trial  1: relative flow change = 0.001549
                        maximum  flow change = 0.1778 for Link p110
                        maximum  head error  = 0.0000 for Link p239

    10:10:00: Balanced after 1 trials
   
    10:15:00: Balancing the network:

              Trial  1: relative flow change = 0.001528
                        maximum  flow change = 0.1805 for Link p235
                        maximum  head error  = 0.0000 for Link p239

    10:15:00: Balanced after 1 trials
   
    10:20:00: Balancing the network:

              Trial  1: relative flow change = 0.001248
                        maximum  flow change = 0.1714 for Link p235
                        maximum  head error  = 0.0000 for Link p239

    10:20:00: Balanced after 1 trials
   
    10:25:00: Balancing the network:

              Trial  1: relative flow change = 0.000853
                        maximum  flow change = 0.1280 for Link p235
                        maximum  head error  = 0.0000 for Link p239

    10:25:00: Balanced after 1 trials
   
    10:30:00: Balancing the network:

              Trial  1: relative flow change = 0.000506
                        maximum  flow change = 0.0663 for Link p235
                        maximum  head error  = 0.0000 for Link p239

    10:30:00: Balanced after 1 trials
   
    10:35:00: Balancing the network:

              Trial  1: relative flow change = 0.000545
                        maximum  flow change = 0.0433 for Link p110
                        maximum  head error  = 0.0000 for Link p239

    10:35:00: Balanced after 1 trials
   
    10:40:00: Balancing the network:

              Trial  1: relative flow change = 0.000695
                        maximum  flow change = 0.0730 for Link p110
                        maximum  head error  = 0.0000 for Link p239

    10:40:00: Balanced after 1 trials
   
    10:45:00: Balancing the network:

              Trial  1: relative flow change = 0.000594
                        maximum  flow change = 0.0734 for Link PRV-2
                        maximum  head error  = 0.0000 for Link p239

    10:45:00: Balanced after 1 trials
   
    10:50:00: Balancing the network:

              Trial  1: relative flow change = 0.000369
                        maximum  flow change = 0.0560 for Link PRV-2
                        maximum  head error  = 0.0000 for Link p239

    10:50:00: Balanced after 1 trials
   
    10:55:00: Balancing the network:

              Trial  1: relative flow change = 0.000371
                        maximum  flow change = 0.0238 for Link p239
                        maximum  head error  = 0.0000 for Link p239

    10:55:00: Balanced after 1 trials
   
    11:00:00: Balancing the network:

              Trial  1: relative flow change = 0.000668
                        maximum  flow change = 0.0742 for Link p110
                        maximum  head error  = 0.0000 for Link p239

    11:00:00: Balanced after 1 trials
   
    11:05:00: Balancing the network:

              Trial  1: relative flow change = 0.000872
                        maximum  flow change = 0.1015 for Link p110
                        maximum  head error  = 0.0000 for Link p239

    11:05:00: Balanced after 1 trials
   
    11:10:00: Balancing the network:

              Trial  1: relative flow change = 0.000998
                        maximum  flow change = 0.1165 for Link p110
                        maximum  head error  = 0.0000 for Link p239

    11:10:00: Balanced after 1 trials
   
    11:15:00: Balancing the network:

              Trial  1: relative flow change = 0.000896
                        maximum  flow change = 0.1180 for Link p235
                        maximum  head error  = 0.0000 for Link p239

    11:15:00: Balanced after 1 trials
   
    11:20:00: Balancing the network:

              Trial  1: relative flow change = 0.000664
                        maximum  flow change = 0.1027 for Link p235
                        maximum  head error  = 0.0000 for Link p239

    11:20:00: Balanced after 1 trials
   
    11:25:00: Balancing the network:

              Trial  1: relative flow change = 0.000461
                        maximum  flow change = 0.0700 for Link p235
                        maximum  head error  = 0.0000 for Link p239

    11:25:00: Balanced after 1 trials
   
    11:30:00: Balancing the network:

              Trial  1: relative flow change = 0.000305
                        maximum  flow change = 0.0429 for Link p235
                        maximum  head error  = 0.0000 for Link p239

    11:30:00: Balanced after 1 trials
   
    11:35:00: Balancing the network:

              Trial  1: relative flow change = 0.000269
                        maximum  flow change = 0.0189 for Link p235
                        maximum  head error  = 0.0000 for Link p239

    11:35:00: Balanced after 1 trials
   
    11:40:00: Balancing the network:

              Trial  1: relative flow change = 0.000332
                        maximum  flow change = 0.0314 for Link p110
                        maximum  head error  = 0.0000 for Link p239

    11:40:00: Balanced after 1 trials
   
    11:45:00: Balancing the network:

              Trial  1: relative flow change = 0.000615
                        maximum  flow change = 0.0735 for Link p110
                        maximum  head error  = 0.0000 for Link p239

    11:45:00: Balanced after 1 trials
   
    11:50:00: Balancing the network:

              Trial  1: relative flow change = 0.000986
                        maximum  flow change = 0.1223 for Link p110
                        maximum  head error  = 0.0000 for Link p239

    11:50:00: Balanced after 1 trials
   
    11:55:00: Balancing the network:

              Trial  1: relative flow change = 0.001383
                        maximum  flow change = 0.1720 for Link p110
                        maximum  head error  = 0.0000 for Link p239

    11:55:00: Balanced after 1 trials
   
    12:00:00: Balancing the network:

              Trial  1: relative flow change = 0.001757
                        maximum  flow change = 0.2166 for Link p110
                        maximum  head error  = 0.0000 for Link p239

    12:00:00: Balanced after 1 trials
   
    12:05:00: Balancing the network:

              Trial  1: relative flow change = 0.001998
                        maximum  flow change = 0.2438 for Link p110
                        maximum  head error  = 0.0000 for Link p239

    12:05:00: Balanced after 1 trials
   
    12:10:00: Balancing the network:

              Trial  1: relative flow change = 0.002148
                        maximum  flow change = 0.2596 for Link p110
                        maximum  head error  = 0.0000 for Link p239

    12:10:00: Balanced after 1 trials
   
    12:15:00: Balancing the network:

              Trial  1: relative flow change = 0.002122
                        maximum  flow change = 0.2626 for Link p235
                        maximum  head error  = 0.0000 for Link p239

    12:15:00: Balanced after 1 trials
   
    12:20:00: Balancing the network:

              Trial  1: relative flow change = 0.001931
                        maximum  flow change = 0.2566 for Link p235
                        maximum  head error  = 0.0000 for Link p239

    12:20:00: Balanced after 1 trials
   
    12:25:00: Balancing the network:

              Trial  1: relative flow change = 0.001692
                        maximum  flow change = 0.2303 for Link p235
                        maximum  head error  = 0.0000 for Link p239

    12:25:00: Balanced after 1 trials
   
    12:30:00: Balancing the network:

              Trial  1: relative flow change = 0.001440
                        maximum  flow change = 0.2007 for Link p235
                        maximum  head error  = 0.0000 for Link p239

    12:30:00: Balanced after 1 trials
   
    12:35:00: Balancing the network:

              Trial  1: relative flow change = 0.001163
                        maximum  flow change = 0.1688 for Link p235
                        maximum  head error  = 0.0000 for Link p239

    12:35:00: Balanced after 1 trials
   
    12:40:00: Balancing the network:

              Trial  1: relative flow change = 0.000955
                        maximum  flow change = 0.1352 for Link p235
                        maximum  head error  = 0.0000 for Link p239

    12:40:00: Balanced after 1 trials
   
    12:45:00: Balancing the network:

              Trial  1: relative flow change = 0.000781
                        maximum  flow change = 0.1105 for Link p235
                        maximum  head error  = 0.0000 for Link p239

    12:45:00: Balanced after 1 trials
   
    12:50:00: Balancing the network:

              Trial  1: relative flow change = 0.000707
                        maximum  flow change = 0.0904 for Link p235
                        maximum  head error  = 0.0000 for Link p239

    12:50:00: Balanced after 1 trials
   
    12:55:00: Balancing the network:

              Trial  1: relative flow change = 0.000721
                        maximum  flow change = 0.0849 for Link p110
                        maximum  head error  = 0.0000 for Link p239

    12:55:00: Balanced after 1 trials
   
    13:00:00: Balancing the network:

              Trial  1: relative flow change = 0.000884
                        maximum  flow change = 0.1061 for Link p110
                        maximum  head error  = 0.0000 for Link p239

    13:00:00: Balanced after 1 trials
   
    13:05:00: Balancing the network:

              Trial  1: relative flow change = 0.001054
                        maximum  flow change = 0.1264 for Link p110
                        maximum  head error  = 0.0000 for Link p239

    13:05:00: Balanced after 1 trials
   
    13:10:00: Balancing the network:

              Trial  1: relative flow change = 0.001381
                        maximum  flow change = 0.1671 for Link p110
                        maximum  head error  = 0.0000 for Link p239

    13:10:00: Balanced after 1 trials
   
    13:15:00: Balancing the network:

              Trial  1: relative flow change = 0.001748
                        maximum  flow change = 0.2108 for Link p110
                        maximum  head error  = 0.0000 for Link p239

    13:15:00: Balanced after 1 trials
   
    13:20:00: Balancing the network:

              Trial  1: relative flow change = 0.002138
                        maximum  flow change = 0.2567 for Link p110
                        maximum  head error  = 0.0000 for Link p239

    13:20:00: Balanced after 1 trials
   
    13:25:00: Balancing the network:

              Trial  1: relative flow change = 0.002473
                        maximum  flow change = 0.2937 for Link p110
                        maximum  head error  = 0.0000 for Link p239

    13:25:00: Balanced after 1 trials
   
    13:30:00: Balancing the network:

              Trial  1: relative flow change = 0.002730
                        maximum  flow change = 0.3223 for Link p110
                        maximum  head error  = 0.0000 for Link p239

    13:30:00: Balanced after 1 trials
   
    13:35:00: Balancing the network:

              Trial  1: relative flow change = 0.002998
                        maximum  flow change = 0.3518 for Link p110
                        maximum  head error  = 0.0000 for Link p239

    13:35:00: Balanced after 1 trials
   
    13:40:00: Balancing the network:

              Trial  1: relative flow change = 0.003097
                        maximum  flow change = 0.3598 for Link p110
                        maximum  head error  = 0.0000 for Link p239

    13:40:00: Balanced after 1 trials
   
    13:45:00: Balancing the network:

              Trial  1: relative flow change = 0.003132
                        maximum  flow change = 0.3641 for Link p235
                        maximum  head error  = 0.0001 for Link p239

    13:45:00: Balanced after 1 trials
   
    13:50:00: Balancing the network:

              Trial  1: relative flow change = 0.003138
                        maximum  flow change = 0.3661 for Link p235
                        maximum  head error  = 0.0001 for Link p239

    13:50:00: Balanced after 1 trials
   
    13:55:00: Balancing the network:

              Trial  1: relative flow change = 0.003083
                        maximum  flow change = 0.3653 for Link p235
                        maximum  head error  = 0.0001 for Link p239

    13:55:00: Balanced after 1 trials
   
    14:00:00: Balancing the network:

              Trial  1: relative flow change = 0.003012
                        maximum  flow change = 0.3570 for Link p235
                        maximum  head error  = 0.0001 for Link p239

    14:00:00: Balanced after 1 trials
   
    14:05:00: Balancing the network:

              Trial  1: relative flow change = 0.003073
                        maximum  flow change = 0.3511 for Link p110
                        maximum  head error  = 0.0001 for Link p239

    14:05:00: Balanced after 1 trials
   
    14:10:00: Balancing the network:

              Trial  1: relative flow change = 0.003087
                        maximum  flow change = 0.3559 for Link p235
                        maximum  head error  = 0.0001 for Link p239

    14:10:00: Balanced after 1 trials
   
    14:15:00: Balancing the network:

              Trial  1: relative flow change = 0.003188
                        maximum  flow change = 0.3609 for Link p110
                        maximum  head error  = 0.0001 for Link p239

    14:15:00: Balanced after 1 trials
   
    14:20:00: Balancing the network:

              Trial  1: relative flow change = 0.003385
                        maximum  flow change = 0.3826 for Link p110
                        maximum  head error  = 0.0001 for Link p239

    14:20:00: Balanced after 1 trials
   
    14:25:00: Balancing the network:

              Trial  1: relative flow change = 0.003638
                        maximum  flow change = 0.4112 for Link p110
                        maximum  head error  = 0.0001 for Link p239

    14:25:00: Balanced after 1 trials
   
    14:30:00: Balancing the network:

              Trial  1: relative flow change = 0.003993
                        maximum  flow change = 0.4525 for Link p110
                        maximum  head error  = 0.0001 for Link p239

    14:30:00: Balanced after 1 trials
   
    14:35:00: Balancing the network:

              Trial  1: relative flow change = 0.004460
                        maximum  flow change = 0.5050 for Link p110
                        maximum  head error  = 0.0002 for Link p239

    14:35:00: Balanced after 1 trials
   
    14:40:00: Balancing the network:

              Trial  1: relative flow change = 0.005034
                        maximum  flow change = 0.5679 for Link p110
                        maximum  head error  = 0.0002 for Link p239

    14:40:00: Balanced after 1 trials
   
    14:45:00: Balancing the network:

              Trial  1: relative flow change = 0.005763
                        maximum  flow change = 0.6476 for Link p110
                        maximum  head error  = 0.0003 for Link p239

    14:45:00: Balanced after 1 trials
   
    14:50:00: Balancing the network:

              Trial  1: relative flow change = 0.006464
                        maximum  flow change = 0.7199 for Link p110
                        maximum  head error  = 0.0003 for Link p239

    14:50:00: Balanced after 1 trials
   
    14:55:00: Balancing the network:

              Trial  1: relative flow change = 0.007054
                        maximum  flow change = 0.7782 for Link p110
                        maximum  head error  = 0.0003 for Link p239

    14:55:00: Balanced after 1 trials
   
    15:00:00: Balancing the network:

              Trial  1: relative flow change = 0.007628
                        maximum  flow change = 0.8355 for Link p110
                        maximum  head error  = 0.0004 for Link p239

    15:00:00: Balanced after 1 trials
   
    15:05:00: Balancing the network:

              Trial  1: relative flow change = 0.007942
                        maximum  flow change = 0.8599 for Link p110
                        maximum  head error  = 0.0004 for Link p239

    15:05:00: Balanced after 1 trials
   
    15:10:00: Balancing the network:

              Trial  1: relative flow change = 0.007873
                        maximum  flow change = 0.8705 for Link p235
                        maximum  head error  = 0.0004 for Link p239

    15:10:00: Balanced after 1 trials
   
    15:15:00: Balancing the network:

              Trial  1: relative flow change = 0.007526
                        maximum  flow change = 0.8525 for Link p235
                        maximum  head error  = 0.0003 for Link p239

    15:15:00: Balanced after 1 trials
   
    15:20:00: Balancing the network:

              Trial  1: relative flow change = 0.007004
                        maximum  flow change = 0.8065 for Link p235
                        maximum  head error  = 0.0002 for Link p239

    15:20:00: Balanced after 1 trials
   
    15:25:00: Balancing the network:

              Trial  1: relative flow change = 0.006157
                        maximum  flow change = 0.7430 for Link p235
                        maximum  head error  = 0.0002 for Link p239

    15:25:00: Balanced after 1 trials
   
    15:30:00: Balancing the network:

              Trial  1: relative flow change = 0.005320
                        maximum  flow change = 0.6443 for Link p235
                        maximum  head error  = 0.0001 for Link p239

    15:30:00: Balanced after 1 trials
   
    15:35:00: Balancing the network:

              Trial  1: relative flow change = 0.004375
                        maximum  flow change = 0.5525 for Link p235
                        maximum  head error  = 0.0001 for Link p239

    15:35:00: Balanced after 1 trials
   
    15:40:00: Balancing the network:

              Trial  1: relative flow change = 0.003568
                        maximum  flow change = 0.4483 for Link p235
                        maximum  head error  = 0.0000 for Link p239

    15:40:00: Balanced after 1 trials
   
    15:45:00: Balancing the network:

              Trial  1: relative flow change = 0.002824
                        maximum  flow change = 0.3631 for Link p235
                        maximum  head error  = 0.0000 for Link p239

    15:45:00: Balanced after 1 trials
   
    15:50:00: Balancing the network:

              Trial  1: relative flow change = 0.002161
                        maximum  flow change = 0.2836 for Link p235
                        maximum  head error  = 0.0000 for Link p239

    15:50:00: Balanced after 1 trials
   
    15:55:00: Balancing the network:

              Trial  1: relative flow change = 0.001564
                        maximum  flow change = 0.2138 for Link p235
                        maximum  head error  = 0.0000 for Link p110

    15:55:00: Balanced after 1 trials
   
    16:00:00: Balancing the network:

              Trial  1: relative flow change = 0.001036
                        maximum  flow change = 0.1517 for Link p235
                        maximum  head error  = 0.0000 for Link p110

    16:00:00: Balanced after 1 trials
   
    16:05:00: Balancing the network:

              Trial  1: relative flow change = 0.000457
                        maximum  flow change = 0.0972 for Link PRV-2
                        maximum  head error  = 0.0000 for Link p239

    16:05:00: Balanced after 1 trials
   
    16:10:00: Balancing the network:

              Trial  1: relative flow change = 0.000431
                        maximum  flow change = 0.0328 for Link p110
                        maximum  head error  = 0.0000 for Link p239

    16:10:00: Balanced after 1 trials
   
    16:15:00: Balancing the network:

              Trial  1: relative flow change = 0.000853
                        maximum  flow change = 0.0881 for Link p110
                        maximum  head error  = 0.0000 for Link p239

    16:15:00: Balanced after 1 trials
   
    16:20:00: Balancing the network:

              Trial  1: relative flow change = 0.001351
                        maximum  flow change = 0.1401 for Link p110
                        maximum  head error  = 0.0000 for Link p239

    16:20:00: Balanced after 1 trials
   
    16:25:00: Balancing the network:

              Trial  1: relative flow change = 0.001782
                        maximum  flow change = 0.1853 for Link p110
                        maximum  head error  = 0.0000 for Link p239

    16:25:00: Balanced after 1 trials
   
    16:30:00: Balancing the network:

              Trial  1: relative flow change = 0.002022
                        maximum  flow change = 0.2084 for Link p110
                        maximum  head error  = 0.0000 for Link p239

    16:30:00: Balanced after 1 trials
   
    16:35:00: Balancing the network:

              Trial  1: relative flow change = 0.002073
                        maximum  flow change = 0.2113 for Link p235
                        maximum  head error  = 0.0000 for Link p239

    16:35:00: Balanced after 1 trials
   
    16:40:00: Balancing the network:

              Trial  1: relative flow change = 0.002074
                        maximum  flow change = 0.2133 for Link p235
                        maximum  head error  = 0.0000 for Link p239

    16:40:00: Balanced after 1 trials
   
    16:45:00: Balancing the network:

              Trial  1: relative flow change = 0.002088
                        maximum  flow change = 0.2135 for Link p235
                        maximum  head error  = 0.0000 for Link p239

    16:45:00: Balanced after 1 trials
   
    16:50:00: Balancing the network:

              Trial  1: relative flow change = 0.002035
                        maximum  flow change = 0.2149 for Link p235
                        maximum  head error  = 0.0000 for Link p239

    16:50:00: Balanced after 1 trials
   
    16:55:00: Balancing the network:

              Trial  1: relative flow change = 0.002028
                        maximum  flow change = 0.2093 for Link p235
                        maximum  head error  = 0.0000 for Link p239

    16:55:00: Balanced after 1 trials
   
    17:00:00: Balancing the network:

              Trial  1: relative flow change = 0.002104
                        maximum  flow change = 0.2185 for Link p110
                        maximum  head error  = 0.0000 for Link p239

    17:00:00: Balanced after 1 trials
   
    17:05:00: Balancing the network:

              Trial  1: relative flow change = 0.002259
                        maximum  flow change = 0.2381 for Link p110
                        maximum  head error  = 0.0000 for Link p239

    17:05:00: Balanced after 1 trials
   
    17:10:00: Balancing the network:

              Trial  1: relative flow change = 0.002362
                        maximum  flow change = 0.2498 for Link p110
                        maximum  head error  = 0.0000 for Link p239

    17:10:00: Balanced after 1 trials
   
    17:15:00: Balancing the network:

              Trial  1: relative flow change = 0.002410
                        maximum  flow change = 0.2544 for Link p110
                        maximum  head error  = 0.0000 for Link p239

    17:15:00: Balanced after 1 trials
   
    17:20:00: Balancing the network:

              Trial  1: relative flow change = 0.002369
                        maximum  flow change = 0.2577 for Link p235
                        maximum  head error  = 0.0000 for Link p239

    17:20:00: Balanced after 1 trials
   
    17:24:15: Pump PUMP_1 changed by Tank T1 control
    17:24:15: Balancing the network:

              Trial  1: relative flow change = 0.988933
              PRV PRV-3 switched from active to open
              Trial  2: relative flow change = 0.986812
              Pump PUMP_1 switched from open to closed
              Trial  3: relative flow change = 7.753245
              PRV PRV-3 switched from open to active
              Trial  4: relative flow change = 1.661627
              Pump PUMP_1 switched from closed to open
              Trial  5: relative flow change = 0.981264
              PRV PRV-3 switched from active to open
              Trial  6: relative flow change = 0.966885
              Pump PUMP_1 switched from open to closed
              Trial  7: relative flow change = 4.466302
              PRV PRV-3 switched from open to active
              Trial  8: relative flow change = 1.487320
              PRV PRV-1 switched from active to closed
              Pump PUMP_1 switched from closed to open
              Trial  9: relative flow change = 1.003680
              PRV PRV-1 switched from closed to active
              PRV PRV-3 switched from active to open
              Trial 10: relative flow change = 1.108356
              PRV PRV-3 switched from open to active
              Trial 11: relative flow change = 0.857576
              Trial 12: relative flow change = 0.689254
              Trial 13: relative flow change = 0.575379
              Trial 14: relative flow change = 0.421117
              Trial 15: relative flow change = 0.243661
              Trial 16: relative flow change = 0.092737
              Trial 17: relative flow change = 0.016993
              Trial 18: relative flow change = 0.001139
                        maximum  flow change = 0.8080 for Link PRV-2
                        maximum  head error  = 0.0001 for Link p646

    17:24:15: Balanced after 18 trials
    17:24:15: Tank T1 is filling at 2.40 m
    17:24:15: Pump PUMP_1 changed from closed to open
   
    17:25:00: Balancing the network:

              Trial  1: relative flow change = 0.001562
                        maximum  flow change = 0.2356 for Link p110
                        maximum  head error  = 0.0000 for Link p239

    17:25:00: Balanced after 1 trials
   
    17:30:00: Balancing the network:

              Trial  1: relative flow change = 0.001533
                        maximum  flow change = 0.2385 for Link p235
                        maximum  head error  = 0.0000 for Link p239

    17:30:00: Balanced after 1 trials
   
    17:35:00: Balancing the network:

              Trial  1: relative flow change = 0.001379
                        maximum  flow change = 0.2204 for Link p235
                        maximum  head error  = 0.0000 for Link p239

    17:35:00: Balanced after 1 trials
   
    17:40:00: Balancing the network:

              Trial  1: relative flow change = 0.001218
                        maximum  flow change = 0.1959 for Link p235
                        maximum  head error  = 0.0000 for Link p239

    17:40:00: Balanced after 1 trials
   
    17:45:00: Balancing the network:

              Trial  1: relative flow change = 0.001149
                        maximum  flow change = 0.1720 for Link p235
                        maximum  head error  = 0.0000 for Link p239

    17:45:00: Balanced after 1 trials
   
    17:50:00: Balancing the network:

              Trial  1: relative flow change = 0.001156
                        maximum  flow change = 0.1631 for Link p110
                        maximum  head error  = 0.0000 for Link p239

    17:50:00: Balanced after 1 trials
   
    17:55:00: Balancing the network:

              Trial  1: relative flow change = 0.001241
                        maximum  flow change = 0.1785 for Link p110
                        maximum  head error  = 0.0000 for Link p239

    17:55:00: Balanced after 1 trials
   
    18:00:00: Balancing the network:

              Trial  1: relative flow change = 0.001342
                        maximum  flow change = 0.1949 for Link p110
                        maximum  head error  = 0.0000 for Link p239

    18:00:00: Balanced after 1 trials
   
    18:05:00: Balancing the network:

              Trial  1: relative flow change = 0.001459
                        maximum  flow change = 0.2130 for Link p110
                        maximum  head error  = 0.0000 for Link p239

    18:05:00: Balanced after 1 trials
   
    18:10:00: Balancing the network:

              Trial  1: relative flow change = 0.001577
                        maximum  flow change = 0.2308 for Link p110
                        maximum  head error  = 0.0000 for Link p239

    18:10:00: Balanced after 1 trials
   
    18:15:00: Balancing the network:

              Trial  1: relative flow change = 0.001673
                        maximum  flow change = 0.2438 for Link p110
                        maximum  head error  = 0.0000 for Link p239

    18:15:00: Balanced after 1 trials
   
    18:20:00: Balancing the network:

              Trial  1: relative flow change = 0.001717
                        maximum  flow change = 0.2490 for Link p110
                        maximum  head error  = 0.0000 for Link p239

    18:20:00: Balanced after 1 trials
   
    18:25:00: Balancing the network:

              Trial  1: relative flow change = 0.001764
                        maximum  flow change = 0.2551 for Link p110
                        maximum  head error  = 0.0000 for Link p239

    18:25:00: Balanced after 1 trials
   
    18:30:00: Balancing the network:

              Trial  1: relative flow change = 0.001827
                        maximum  flow change = 0.2626 for Link p110
                        maximum  head error  = 0.0001 for Link p239

    18:30:00: Balanced after 1 trials
   
    18:35:00: Balancing the network:

              Trial  1: relative flow change = 0.001826
                        maximum  flow change = 0.2663 for Link p235
                        maximum  head error  = 0.0001 for Link p239

    18:35:00: Balanced after 1 trials
   
    18:40:00: Balancing the network:

              Trial  1: relative flow change = 0.001820
                        maximum  flow change = 0.2633 for Link p235
                        maximum  head error  = 0.0001 for Link p239

    18:40:00: Balanced after 1 trials
   
    18:45:00: Balancing the network:

              Trial  1: relative flow change = 0.001695
                        maximum  flow change = 0.2613 for Link p235
                        maximum  head error  = 0.0001 for Link p239

    18:45:00: Balanced after 1 trials
   
    18:50:00: Balancing the network:

              Trial  1: relative flow change = 0.001536
                        maximum  flow change = 0.2410 for Link p235
                        maximum  head error  = 0.0000 for Link p239

    18:50:00: Balanced after 1 trials
   
    18:55:00: Balancing the network:

              Trial  1: relative flow change = 0.001271
                        maximum  flow change = 0.2177 for Link p235
                        maximum  head error  = 0.0000 for Link p239

    18:55:00: Balanced after 1 trials
   
    19:00:00: Balancing the network:

              Trial  1: relative flow change = 0.000861
                        maximum  flow change = 0.1776 for Link p235
                        maximum  head error  = 0.0000 for Link p239

    19:00:00: Balanced after 1 trials
   
    19:05:00: Balancing the network:

              Trial  1: relative flow change = 0.000528
                        maximum  flow change = 0.1157 for Link p235
                        maximum  head error  = 0.0000 for Link p239

    19:05:00: Balanced after 1 trials
   
    19:10:00: Balancing the network:

              Trial  1: relative flow change = 0.000259
                        maximum  flow change = 0.0678 for Link p235
                        maximum  head error  = 0.0000 for Link p239

    19:10:00: Balanced after 1 trials
   
    19:15:00: Balancing the network:

              Trial  1: relative flow change = 0.000115
                        maximum  flow change = 0.0276 for Link p235
                        maximum  head error  = 0.0000 for Link p239

    19:15:00: Balanced after 1 trials
   
    19:20:00: Balancing the network:

              Trial  1: relative flow change = 0.000172
                        maximum  flow change = 0.0223 for Link p110
                        maximum  head error  = 0.0000 for Link p239

    19:20:00: Balanced after 1 trials
   
    19:25:00: Balancing the network:

              Trial  1: relative flow change = 0.000445
                        maximum  flow change = 0.0670 for Link p110
                        maximum  head error  = 0.0000 for Link p239

    19:25:00: Balanced after 1 trials
   
    19:30:00: Balancing the network:

              Trial  1: relative flow change = 0.000853
                        maximum  flow change = 0.1291 for Link p110
                        maximum  head error  = 0.0000 for Link p239

    19:30:00: Balanced after 1 trials
   
    19:35:00: Balancing the network:

              Trial  1: relative flow change = 0.001281
                        maximum  flow change = 0.1927 for Link p110
                        maximum  head error  = 0.0000 for Link p239

    19:35:00: Balanced after 1 trials
   
    19:40:00: Balancing the network:

              Trial  1: relative flow change = 0.001530
                        maximum  flow change = 0.2270 for Link p110
                        maximum  head error  = 0.0000 for Link p239

    19:40:00: Balanced after 1 trials
   
    19:45:00: Balancing the network:

              Trial  1: relative flow change = 0.001522
                        maximum  flow change = 0.2301 for Link p235
                        maximum  head error  = 0.0000 for Link p239

    19:45:00: Balanced after 1 trials
   
    19:50:00: Balancing the network:

              Trial  1: relative flow change = 0.001174
                        maximum  flow change = 0.2240 for Link p235
                        maximum  head error  = 0.0000 for Link p239

    19:50:00: Balanced after 1 trials
   
    19:55:00: Balancing the network:

              Trial  1: relative flow change = 0.000526
                        maximum  flow change = 0.1654 for Link p235
                        maximum  head error  = 0.0000 for Link p239

    19:55:00: Balanced after 1 trials
   
    20:00:00: Balancing the network:

              Trial  1: relative flow change = 0.000474
                        maximum  flow change = 0.0686 for Link p110
                        maximum  head error  = 0.0000 for Link p110

    20:00:00: Balanced after 1 trials
   
    20:05:00: Balancing the network:

              Trial  1: relative flow change = 0.001223
                        maximum  flow change = 0.1888 for Link p110
                        maximum  head error  = 0.0000 for Link p239

    20:05:00: Balanced after 1 trials
   
    20:10:00: Balancing the network:

              Trial  1: relative flow change = 0.001769
                        maximum  flow change = 0.2656 for Link p110
                        maximum  head error  = 0.0000 for Link p239

    20:10:00: Balanced after 1 trials
   
    20:15:00: Balancing the network:

              Trial  1: relative flow change = 0.001914
                        maximum  flow change = 0.2818 for Link p110
                        maximum  head error  = 0.0000 for Link p239

    20:15:00: Balanced after 1 trials
   
    20:20:00: Balancing the network:

              Trial  1: relative flow change = 0.001434
                        maximum  flow change = 0.2840 for Link p235
                        maximum  head error  = 0.0000 for Link p239

    20:20:00: Balanced after 1 trials
   
    20:25:00: Balancing the network:

              Trial  1: relative flow change = 0.000449
                        maximum  flow change = 0.2025 for Link p235
                        maximum  head error  = 0.0000 for Link p700

    20:25:00: Balanced after 1 trials
   
    20:30:00: Balancing the network:

              Trial  1: relative flow change = 0.000926
                        maximum  flow change = 0.1415 for Link p110
                        maximum  head error  = 0.0000 for Link p239

    20:30:00: Balanced after 1 trials
   
    20:35:00: Balancing the network:

              Trial  1: relative flow change = 0.002221
                        maximum  flow change = 0.3458 for Link p110
                        maximum  head error  = 0.0001 for Link p239

    20:35:00: Balanced after 1 trials
   
    20:40:00: Balancing the network:

              Trial  1: relative flow change = 0.003266
                        maximum  flow change = 0.4979 for Link p110
                        maximum  head error  = 0.0001 for Link p239

    20:40:00: Balanced after 1 trials
   
    20:45:00: Balancing the network:

              Trial  1: relative flow change = 0.003820
                        maximum  flow change = 0.5757 for Link p110
                        maximum  head error  = 0.0002 for Link p239

    20:45:00: Balanced after 1 trials
   
    20:50:00: Balancing the network:

              Trial  1: relative flow change = 0.003821
                        maximum  flow change = 0.5831 for Link p235
                        maximum  head error  = 0.0002 for Link p239

    20:50:00: Balanced after 1 trials
   
    20:55:00: Balancing the network:

              Trial  1: relative flow change = 0.003107
                        maximum  flow change = 0.5768 for Link p235
                        maximum  head error  = 0.0001 for Link p239

    20:55:00: Balanced after 1 trials
   
    21:00:00: Balancing the network:

              Trial  1: relative flow change = 0.001997
                        maximum  flow change = 0.4595 for Link p235
                        maximum  head error  = 0.0000 for Link p239

    21:00:00: Balanced after 1 trials
   
    21:05:00: Balancing the network:

              Trial  1: relative flow change = 0.000627
                        maximum  flow change = 0.2864 for Link p235
                        maximum  head error  = 0.0000 for Link p239

    21:05:00: Balanced after 1 trials
   
    21:10:00: Balancing the network:

              Trial  1: relative flow change = 0.000861
                        maximum  flow change = 0.1353 for Link p110
                        maximum  head error  = 0.0000 for Link p239

    21:10:00: Balanced after 1 trials
   
    21:15:00: Balancing the network:

              Trial  1: relative flow change = 0.001987
                        maximum  flow change = 0.3116 for Link p110
                        maximum  head error  = 0.0000 for Link p239

    21:15:00: Balanced after 1 trials
   
    21:20:00: Balancing the network:

              Trial  1: relative flow change = 0.002897
                        maximum  flow change = 0.4427 for Link p110
                        maximum  head error  = 0.0001 for Link p239

    21:20:00: Balanced after 1 trials
   
    21:25:00: Balancing the network:

              Trial  1: relative flow change = 0.003588
                        maximum  flow change = 0.5410 for Link p110
                        maximum  head error  = 0.0001 for Link p239

    21:25:00: Balanced after 1 trials
   
    21:30:00: Balancing the network:

              Trial  1: relative flow change = 0.004210
                        maximum  flow change = 0.6298 for Link p110
                        maximum  head error  = 0.0002 for Link p239

    21:30:00: Balanced after 1 trials
   
    21:35:00: Balancing the network:

              Trial  1: relative flow change = 0.004874
                        maximum  flow change = 0.7252 for Link p110
                        maximum  head error  = 0.0002 for Link p239

    21:35:00: Balanced after 1 trials
   
    21:40:00: Balancing the network:

              Trial  1: relative flow change = 0.005755
                        maximum  flow change = 0.8527 for Link p110
                        maximum  head error  = 0.0003 for Link p239

    21:40:00: Balanced after 1 trials
   
    21:45:00: Balancing the network:

              Trial  1: relative flow change = 0.006880
                        maximum  flow change = 1.0140 for Link p110
                        maximum  head error  = 0.0005 for Link p239

    21:45:00: Balanced after 1 trials
   
    21:50:00: Balancing the network:

              Trial  1: relative flow change = 0.008237
                        maximum  flow change = 1.2047 for Link p110
                        maximum  head error  = 0.0007 for Link p239

    21:50:00: Balanced after 1 trials
   
    21:55:00: Balancing the network:

              Trial  1: relative flow change = 0.009478
                        maximum  flow change = 1.3689 for Link p110
                        maximum  head error  = 0.0009 for Link p239

    21:55:00: Balanced after 1 trials
   
    22:00:00: Balancing the network:

              Trial  1: relative flow change = 0.010494
              Trial  2: relative flow change = 0.001124
                        maximum  flow change = 1.4963 for Link p235
                        maximum  head error  = 0.0000 for Link p700

    22:00:00: Balanced after 2 trials
   
    22:05:00: Balancing the network:

[...]

   162:40:00: Balanced after 1 trials
   
   162:45:00: Balancing the network:

              Trial  1: relative flow change = 0.002591
                        maximum  flow change = 0.3048 for Link p235
                        maximum  head error  = 0.0001 for Link p239

   162:45:00: Balanced after 1 trials
   
   162:50:00: Balancing the network:

              Trial  1: relative flow change = 0.002268
                        maximum  flow change = 0.2711 for Link p235
                        maximum  head error  = 0.0001 for Link p239

   162:50:00: Balanced after 1 trials
   
   162:55:00: Balancing the network:

              Trial  1: relative flow change = 0.001808
                        maximum  flow change = 0.2367 for Link p235
                        maximum  head error  = 0.0000 for Link p239

   162:55:00: Balanced after 1 trials
   
   163:00:00: Balancing the network:

              Trial  1: relative flow change = 0.001408
                        maximum  flow change = 0.1863 for Link p235
                        maximum  head error  = 0.0000 for Link p239

   163:00:00: Balanced after 1 trials
   
   163:05:00: Balancing the network:

              Trial  1: relative flow change = 0.000934
                        maximum  flow change = 0.1446 for Link p235
                        maximum  head error  = 0.0000 for Link p239

   163:05:00: Balanced after 1 trials
   
   163:10:00: Balancing the network:

              Trial  1: relative flow change = 0.000585
                        maximum  flow change = 0.0933 for Link p235
                        maximum  head error  = 0.0000 for Link p239

   163:10:00: Balanced after 1 trials
   
   163:11:47: Pump PUMP_1 changed by Tank T1 control
   163:11:47: Balancing the network:

              Trial  1: relative flow change = 0.988456
              PRV PRV-3 switched from active to open
              Trial  2: relative flow change = 0.986018
              Pump PUMP_1 switched from open to closed
              Trial  3: relative flow change = 7.668641
              PRV PRV-3 switched from open to active
              Trial  4: relative flow change = 1.637647
              Pump PUMP_1 switched from closed to open
              Trial  5: relative flow change = 0.981618
              PRV PRV-3 switched from active to open
              Trial  6: relative flow change = 0.968904
              Pump PUMP_1 switched from open to closed
              Trial  7: relative flow change = 4.428831
              PRV PRV-3 switched from open to active
              Trial  8: relative flow change = 1.463496
              PRV PRV-1 switched from active to closed
              Pump PUMP_1 switched from closed to open
              Trial  9: relative flow change = 1.009304
              PRV PRV-1 switched from closed to active
              PRV PRV-3 switched from active to open
              Trial 10: relative flow change = 1.107998
              PRV PRV-3 switched from open to active
              Trial 11: relative flow change = 0.869095
              Trial 12: relative flow change = 0.674056
              Trial 13: relative flow change = 0.557017
              Trial 14: relative flow change = 0.408010
              Trial 15: relative flow change = 0.239812
              Trial 16: relative flow change = 0.094456
              Trial 17: relative flow change = 0.017341
              Trial 18: relative flow change = 0.001393
                        maximum  flow change = 0.9393 for Link PRV-2
                        maximum  head error  = 0.0010 for Link p123

   163:11:47: Balanced after 18 trials
   163:11:47: Tank T1 is filling at 2.40 m
   163:11:47: Pump PUMP_1 changed from closed to open
   
   163:15:00: Balancing the network:

              Trial  1: relative flow change = 0.000445
                        maximum  flow change = 0.0605 for Link p84
                        maximum  head error  = 0.0001 for Link p123

   163:15:00: Balanced after 1 trials
   
   163:20:00: Balancing the network:

              Trial  1: relative flow change = 0.000331
                        maximum  flow change = 0.0433 for Link p110
                        maximum  head error  = 0.0000 for Link p239

   163:20:00: Balanced after 1 trials
   
   163:25:00: Balancing the network:

              Trial  1: relative flow change = 0.000461
                        maximum  flow change = 0.0657 for Link p110
                        maximum  head error  = 0.0000 for Link p239

   163:25:00: Balanced after 1 trials
   
   163:30:00: Balancing the network:

              Trial  1: relative flow change = 0.000661
                        maximum  flow change = 0.0946 for Link p110
                        maximum  head error  = 0.0000 for Link p239

   163:30:00: Balanced after 1 trials
   
   163:35:00: Balancing the network:

              Trial  1: relative flow change = 0.000909
                        maximum  flow change = 0.1302 for Link p110
                        maximum  head error  = 0.0000 for Link p239

   163:35:00: Balanced after 1 trials
   
   163:40:00: Balancing the network:

              Trial  1: relative flow change = 0.001061
                        maximum  flow change = 0.1500 for Link p110
                        maximum  head error  = 0.0000 for Link p239

   163:40:00: Balanced after 1 trials
   
   163:45:00: Balancing the network:

              Trial  1: relative flow change = 0.001092
                        maximum  flow change = 0.1524 for Link p110
                        maximum  head error  = 0.0000 for Link p239

   163:45:00: Balanced after 1 trials
   
   163:50:00: Balancing the network:

              Trial  1: relative flow change = 0.000883
                        maximum  flow change = 0.1543 for Link p235
                        maximum  head error  = 0.0000 for Link p239

   163:50:00: Balanced after 1 trials
   
   163:55:00: Balancing the network:

              Trial  1: relative flow change = 0.000508
                        maximum  flow change = 0.1173 for Link p235
                        maximum  head error  = 0.0000 for Link p239

   163:55:00: Balanced after 1 trials
   
   164:00:00: Balancing the network:

              Trial  1: relative flow change = 0.000272
                        maximum  flow change = 0.0520 for Link p235
                        maximum  head error  = 0.0000 for Link p239

   164:00:00: Balanced after 1 trials
   
   164:05:00: Balancing the network:

              Trial  1: relative flow change = 0.000591
                        maximum  flow change = 0.0884 for Link p110
                        maximum  head error  = 0.0000 for Link p110

   164:05:00: Balanced after 1 trials
   
   164:10:00: Balancing the network:

              Trial  1: relative flow change = 0.000841
                        maximum  flow change = 0.1227 for Link p110
                        maximum  head error  = 0.0000 for Link p239

   164:10:00: Balanced after 1 trials
   
   164:15:00: Balancing the network:

              Trial  1: relative flow change = 0.000843
                        maximum  flow change = 0.1239 for Link p235
                        maximum  head error  = 0.0000 for Link p239

   164:15:00: Balanced after 1 trials
   
   164:20:00: Balancing the network:

              Trial  1: relative flow change = 0.000447
                        maximum  flow change = 0.1210 for Link p235
                        maximum  head error  = 0.0000 for Link p110

   164:20:00: Balanced after 1 trials
   
   164:25:00: Balancing the network:

              Trial  1: relative flow change = 0.000394
                        maximum  flow change = 0.0568 for Link PRV-2
                        maximum  head error  = 0.0000 for Link p239

   164:25:00: Balanced after 1 trials
   
   164:30:00: Balancing the network:

              Trial  1: relative flow change = 0.001263
                        maximum  flow change = 0.1958 for Link p110
                        maximum  head error  = 0.0000 for Link p239

   164:30:00: Balanced after 1 trials
   
   164:35:00: Balancing the network:

              Trial  1: relative flow change = 0.002217
                        maximum  flow change = 0.3365 for Link p110
                        maximum  head error  = 0.0001 for Link p239

   164:35:00: Balanced after 1 trials
   
   164:40:00: Balancing the network:

              Trial  1: relative flow change = 0.002970
                        maximum  flow change = 0.4456 for Link p110
                        maximum  head error  = 0.0001 for Link p239

   164:40:00: Balanced after 1 trials
   
   164:45:00: Balancing the network:

              Trial  1: relative flow change = 0.003400
                        maximum  flow change = 0.5056 for Link p110
                        maximum  head error  = 0.0002 for Link p239

   164:45:00: Balanced after 1 trials
   
   164:50:00: Balancing the network:

              Trial  1: relative flow change = 0.003315
                        maximum  flow change = 0.5120 for Link p235
                        maximum  head error  = 0.0001 for Link p239

   164:50:00: Balanced after 1 trials
   
   164:55:00: Balancing the network:

              Trial  1: relative flow change = 0.002813
                        maximum  flow change = 0.4942 for Link p235
                        maximum  head error  = 0.0001 for Link p239

   164:55:00: Balanced after 1 trials
   
   165:00:00: Balancing the network:

              Trial  1: relative flow change = 0.001990
                        maximum  flow change = 0.4138 for Link p235
                        maximum  head error  = 0.0001 for Link p239

   165:00:00: Balanced after 1 trials
   
   165:05:00: Balancing the network:

              Trial  1: relative flow change = 0.000987
                        maximum  flow change = 0.2854 for Link p235
                        maximum  head error  = 0.0000 for Link p239

   165:05:00: Balanced after 1 trials
   
   165:10:00: Balancing the network:

              Trial  1: relative flow change = 0.000317
                        maximum  flow change = 0.1278 for Link p235
                        maximum  head error  = 0.0000 for Link p239

   165:10:00: Balanced after 1 trials
   
   165:15:00: Balancing the network:

              Trial  1: relative flow change = 0.001108
                        maximum  flow change = 0.1742 for Link p110
                        maximum  head error  = 0.0000 for Link p239

   165:15:00: Balanced after 1 trials
   
   165:20:00: Balancing the network:

              Trial  1: relative flow change = 0.001943
                        maximum  flow change = 0.2958 for Link p110
                        maximum  head error  = 0.0000 for Link p239

   165:20:00: Balanced after 1 trials
   
   165:25:00: Balancing the network:

              Trial  1: relative flow change = 0.002699
                        maximum  flow change = 0.4062 for Link p110
                        maximum  head error  = 0.0001 for Link p239

   165:25:00: Balanced after 1 trials
   
   165:30:00: Balancing the network:

              Trial  1: relative flow change = 0.003521
                        maximum  flow change = 0.5269 for Link p110
                        maximum  head error  = 0.0001 for Link p239

   165:30:00: Balanced after 1 trials
   
   165:35:00: Balancing the network:

              Trial  1: relative flow change = 0.004506
                        maximum  flow change = 0.6713 for Link p110
                        maximum  head error  = 0.0002 for Link p239

   165:35:00: Balanced after 1 trials
   
   165:40:00: Balancing the network:

              Trial  1: relative flow change = 0.005640
                        maximum  flow change = 0.8349 for Link p110
                        maximum  head error  = 0.0003 for Link p239

   165:40:00: Balanced after 1 trials
   
   165:45:00: Balancing the network:

              Trial  1: relative flow change = 0.007066
                        maximum  flow change = 1.0396 for Link p110
                        maximum  head error  = 0.0005 for Link p239

   165:45:00: Balanced after 1 trials
   
   165:50:00: Balancing the network:

              Trial  1: relative flow change = 0.008509
                        maximum  flow change = 1.2374 for Link p110
                        maximum  head error  = 0.0007 for Link p239

   165:50:00: Balanced after 1 trials
   
   165:55:00: Balancing the network:

              Trial  1: relative flow change = 0.009826
                        maximum  flow change = 1.4110 for Link p110
                        maximum  head error  = 0.0010 for Link p239

   165:55:00: Balanced after 1 trials
   
   166:00:00: Balancing the network:

              Trial  1: relative flow change = 0.010751
              Trial  2: relative flow change = 0.001208
                        maximum  flow change = 1.5211 for Link PRV-2
                        maximum  head error  = 0.0000 for Link p700

   166:00:00: Balanced after 2 trials
   
   166:05:00: Balancing the network:

              Trial  1: relative flow change = 0.009921
                        maximum  flow change = 1.5105 for Link p110
                        maximum  head error  = 0.0011 for Link p239

   166:05:00: Balanced after 1 trials
   
   166:10:00: Balancing the network:

              Trial  1: relative flow change = 0.010704
              Trial  2: relative flow change = 0.001179
                        maximum  flow change = 1.4690 for Link p235
                        maximum  head error  = 0.0000 for Link p700

   166:10:00: Balanced after 2 trials
   
   166:15:00: Balancing the network:

              Trial  1: relative flow change = 0.008436
                        maximum  flow change = 1.2580 for Link p110
                        maximum  head error  = 0.0008 for Link p239

   166:15:00: Balanced after 1 trials
   
   166:20:00: Balancing the network:

              Trial  1: relative flow change = 0.008035
                        maximum  flow change = 1.2714 for Link p235
                        maximum  head error  = 0.0006 for Link p239

   166:20:00: Balanced after 1 trials
   
   166:25:00: Balancing the network:

              Trial  1: relative flow change = 0.006378
                        maximum  flow change = 1.0808 for Link p235
                        maximum  head error  = 0.0004 for Link p239

   166:25:00: Balanced after 1 trials
   
   166:30:00: Balancing the network:

              Trial  1: relative flow change = 0.005037
                        maximum  flow change = 0.8449 for Link p235
                        maximum  head error  = 0.0002 for Link p239

   166:30:00: Balanced after 1 trials
   
   166:35:00: Balancing the network:

              Trial  1: relative flow change = 0.004223
                        maximum  flow change = 0.6659 for Link p235
                        maximum  head error  = 0.0002 for Link p239

   166:35:00: Balanced after 1 trials
   
   166:40:00: Balancing the network:

              Trial  1: relative flow change = 0.004195
                        maximum  flow change = 0.5605 for Link p235
                        maximum  head error  = 0.0002 for Link p239

   166:40:00: Balanced after 1 trials
   
   166:45:00: Balancing the network:

              Trial  1: relative flow change = 0.004903
                        maximum  flow change = 0.6570 for Link p110
                        maximum  head error  = 0.0002 for Link p239

   166:45:00: Balanced after 1 trials
   
   166:50:00: Balancing the network:

              Trial  1: relative flow change = 0.006164
                        maximum  flow change = 0.8241 for Link p110
                        maximum  head error  = 0.0004 for Link p239

   166:50:00: Balanced after 1 trials
   
   166:55:00: Balancing the network:

              Trial  1: relative flow change = 0.007646
                        maximum  flow change = 1.0138 for Link p110
                        maximum  head error  = 0.0005 for Link p239

   166:55:00: Balanced after 1 trials
   
   167:00:00: Balancing the network:

              Trial  1: relative flow change = 0.009006
                        maximum  flow change = 1.1790 for Link p110
                        maximum  head error  = 0.0007 for Link p239

   167:00:00: Balanced after 1 trials
   
   167:05:00: Balancing the network:

              Trial  1: relative flow change = 0.009912
                        maximum  flow change = 1.2778 for Link p110
                        maximum  head error  = 0.0009 for Link p239

   167:05:00: Balanced after 1 trials
   
   167:10:00: Balancing the network:

              Trial  1: relative flow change = 0.010348
              Trial  2: relative flow change = 0.001091
                        maximum  flow change = 1.3155 for Link PRV-2
                        maximum  head error  = 0.0000 for Link p700

   167:10:00: Balanced after 2 trials
   
   167:15:00: Balancing the network:

              Trial  1: relative flow change = 0.009094
                        maximum  flow change = 1.2468 for Link p110
                        maximum  head error  = 0.0008 for Link p239

   167:15:00: Balanced after 1 trials
   
   167:20:00: Balancing the network:

              Trial  1: relative flow change = 0.009628
                        maximum  flow change = 1.2618 for Link p235
                        maximum  head error  = 0.0007 for Link p239

   167:20:00: Balanced after 1 trials
   
   167:25:00: Balancing the network:

              Trial  1: relative flow change = 0.009108
                        maximum  flow change = 1.2077 for Link p235
                        maximum  head error  = 0.0006 for Link p239

   167:25:00: Balanced after 1 trials
   
   167:30:00: Balancing the network:

              Trial  1: relative flow change = 0.008796
                        maximum  flow change = 1.1311 for Link p235
                        maximum  head error  = 0.0006 for Link p239

   167:30:00: Balanced after 1 trials
   
   167:35:00: Balancing the network:

              Trial  1: relative flow change = 0.008914
                        maximum  flow change = 1.0866 for Link p235
                        maximum  head error  = 0.0005 for Link p239

   167:35:00: Balanced after 1 trials
   
   167:40:00: Balancing the network:

              Trial  1: relative flow change = 0.009533
                        maximum  flow change = 1.1525 for Link p110
                        maximum  head error  = 0.0006 for Link p239

   167:40:00: Balanced after 1 trials
   
   167:45:00: Balancing the network:

              Trial  1: relative flow change = 0.010619
              Trial  2: relative flow change = 0.001381
                        maximum  flow change = 1.2737 for Link PRV-2
                        maximum  head error  = 0.0000 for Link p700

   167:45:00: Balanced after 2 trials
   
   167:50:00: Balancing the network:

              Trial  1: relative flow change = 0.010679
              Trial  2: relative flow change = 0.001569
                        maximum  flow change = 1.3825 for Link p235
                        maximum  head error  = 0.0000 for Link p700

   167:50:00: Balanced after 2 trials
   
   167:55:00: Balancing the network:

              Trial  1: relative flow change = 0.011814
              Trial  2: relative flow change = 0.001753
                        maximum  flow change = 1.5106 for Link p235
                        maximum  head error  = 0.0000 for Link p700

   167:55:00: Balanced after 2 trials
   
   168:00:00: Balancing the network:

              Trial  1: relative flow change = 0.012800
              Trial  2: relative flow change = 0.001920
                        maximum  flow change = 1.6149 for Link p235
                        maximum  head error  = 0.0000 for Link p700

   168:00:00: Balanced after 2 trials
   